<?xml version="1.0" encoding="UTF-8"?>

<!-- generated on 2026-03-15T14:20:40.173938+09:00 by Eclipse SUMO netconvert 1.26.0
<netconvertConfiguration xmlns:xsi="http://www.w3.org/2001/XMLSchema-instance" xsi:noNamespaceSchemaLocation="http://sumo.dlr.de/xsd/netconvertConfiguration.xsd">

    <input>
        <node-files value="sumo/hanoi_hk.nod.xml"/>
        <edge-files value="sumo/hanoi_hk.edg.xml"/>
    </input>

    <output>
        <output-file value="sumo/hanoi_hk.net.xml"/>
    </output>

    <projection>
        <proj value="+proj=utm +zone=48 +datum=WGS84 +units=m +no_defs"/>
    </projection>

    <tls_building>
        <tls.default-type value="static"/>
    </tls_building>

    <junctions>
        <no-turnarounds value="true"/>
    </junctions>

</netconvertConfiguration>
-->

<net version="1.20" junctionCornerDetail="5" limitTurnSpeed="5.50" xmlns:xsi="http://www.w3.org/2001/XMLSchema-instance" xsi:noNamespaceSchemaLocation="http://sumo.dlr.de/xsd/net_file.xsd">

    <location netOffset="-587910.11,-2324595.68" convBoundary="0.00,0.00,1042.03,1108.82" origBoundary="105.846000,21.020000,105.856000,21.030000" projParameter="+proj=utm +zone=48 +datum=WGS84 +units=m +no_defs"/>

    <edge id=":HK01_0" function="internal">
        <lane id=":HK01_0_0" index="0" speed="6.51" length="9.03" shape="344.32,558.27 341.87,558.60 340.12,559.64 339.06,561.39 338.69,563.84"/>
    </edge>
    <edge id=":HK01_1" function="internal">
        <lane id=":HK01_1_0" index="0" speed="13.89" length="20.80" shape="344.32,558.27 323.52,558.15"/>
        <lane id=":HK01_1_1" index="1" speed="13.89" length="20.80" shape="344.34,555.07 323.54,554.95"/>
    </edge>
    <edge id=":HK01_3" function="internal">
        <lane id=":HK01_3_0" index="0" speed="9.26" length="5.01" shape="344.34,555.07 339.38,554.33"/>
    </edge>
    <edge id=":HK01_16" function="internal">
        <lane id=":HK01_16_0" index="0" speed="9.26" length="14.34" shape="339.38,554.33 339.10,554.29 335.36,552.02 333.13,548.26 332.41,543.00"/>
    </edge>
    <edge id=":HK01_4" function="internal">
        <lane id=":HK01_4_0" index="0" speed="6.51" length="9.03" shape="338.81,543.04 339.14,545.49 340.18,547.24 341.93,548.30 344.38,548.67"/>
    </edge>
    <edge id=":HK01_5" function="internal">
        <lane id=":HK01_5_0" index="0" speed="13.89" length="20.80" shape="338.81,543.04 338.69,563.84"/>
        <lane id=":HK01_5_1" index="1" speed="13.89" length="20.80" shape="335.61,543.02 335.49,563.82"/>
    </edge>
    <edge id=":HK01_7" function="internal">
        <lane id=":HK01_7_0" index="0" speed="9.26" length="5.01" shape="335.61,543.02 334.87,547.98"/>
    </edge>
    <edge id=":HK01_17" function="internal">
        <lane id=":HK01_17_0" index="0" speed="9.26" length="14.34" shape="334.87,547.98 334.83,548.26 332.56,552.00 328.80,554.23 323.54,554.95"/>
    </edge>
    <edge id=":HK01_8" function="internal">
        <lane id=":HK01_8_0" index="0" speed="6.51" length="9.03" shape="323.58,548.56 326.03,548.22 327.78,547.18 328.84,545.43 329.21,542.98"/>
    </edge>
    <edge id=":HK01_9" function="internal">
        <lane id=":HK01_9_0" index="0" speed="13.89" length="20.80" shape="323.58,548.56 344.38,548.67"/>
        <lane id=":HK01_9_1" index="1" speed="13.89" length="20.80" shape="323.56,551.75 344.36,551.87"/>
    </edge>
    <edge id=":HK01_11" function="internal">
        <lane id=":HK01_11_0" index="0" speed="9.26" length="5.01" shape="323.56,551.75 328.52,552.49"/>
    </edge>
    <edge id=":HK01_18" function="internal">
        <lane id=":HK01_18_0" index="0" speed="9.26" length="14.34" shape="328.52,552.49 328.80,552.53 332.54,554.80 334.77,558.56 335.49,563.82"/>
    </edge>
    <edge id=":HK01_12" function="internal">
        <lane id=":HK01_12_0" index="0" speed="6.51" length="9.03" shape="329.09,563.78 328.76,561.33 327.72,559.58 325.97,558.52 323.52,558.15"/>
    </edge>
    <edge id=":HK01_13" function="internal">
        <lane id=":HK01_13_0" index="0" speed="13.89" length="20.80" shape="329.09,563.78 329.21,542.98"/>
        <lane id=":HK01_13_1" index="1" speed="13.89" length="20.80" shape="332.29,563.80 332.41,543.00"/>
    </edge>
    <edge id=":HK01_15" function="internal">
        <lane id=":HK01_15_0" index="0" speed="9.26" length="5.01" shape="332.29,563.80 333.03,558.84"/>
    </edge>
    <edge id=":HK01_19" function="internal">
        <lane id=":HK01_19_0" index="0" speed="9.26" length="14.34" shape="333.03,558.84 333.07,558.56 335.34,554.82 339.10,552.59 344.36,551.87"/>
    </edge>
    <edge id=":HK02_0" function="internal">
        <lane id=":HK02_0_0" index="0" speed="6.51" length="9.03" shape="718.43,560.26 715.98,560.59 714.23,561.63 713.17,563.38 712.80,565.83"/>
    </edge>
    <edge id=":HK02_1" function="internal">
        <lane id=":HK02_1_0" index="0" speed="13.89" length="20.80" shape="718.43,560.26 697.63,560.14"/>
        <lane id=":HK02_1_1" index="1" speed="13.89" length="20.80" shape="718.45,557.06 697.65,556.94"/>
    </edge>
    <edge id=":HK02_3" function="internal">
        <lane id=":HK02_3_0" index="0" speed="9.26" length="5.01" shape="718.45,557.06 713.49,556.32"/>
    </edge>
    <edge id=":HK02_16" function="internal">
        <lane id=":HK02_16_0" index="0" speed="9.26" length="14.34" shape="713.49,556.32 713.21,556.28 709.47,554.01 707.24,550.25 706.52,544.99"/>
    </edge>
    <edge id=":HK02_4" function="internal">
        <lane id=":HK02_4_0" index="0" speed="6.51" length="9.03" shape="712.92,545.03 713.25,547.48 714.29,549.23 716.04,550.29 718.49,550.66"/>
    </edge>
    <edge id=":HK02_5" function="internal">
        <lane id=":HK02_5_0" index="0" speed="13.89" length="20.80" shape="712.92,545.03 712.80,565.83"/>
        <lane id=":HK02_5_1" index="1" speed="13.89" length="20.80" shape="709.72,545.01 709.60,565.81"/>
    </edge>
    <edge id=":HK02_7" function="internal">
        <lane id=":HK02_7_0" index="0" speed="9.26" length="5.01" shape="709.72,545.01 708.98,549.97"/>
    </edge>
    <edge id=":HK02_17" function="internal">
        <lane id=":HK02_17_0" index="0" speed="9.26" length="14.34" shape="708.98,549.97 708.94,550.25 706.67,553.99 702.91,556.22 697.65,556.94"/>
    </edge>
    <edge id=":HK02_8" function="internal">
        <lane id=":HK02_8_0" index="0" speed="6.51" length="9.03" shape="697.69,550.54 700.14,550.21 701.89,549.17 702.95,547.42 703.32,544.97"/>
    </edge>
    <edge id=":HK02_9" function="internal">
        <lane id=":HK02_9_0" index="0" speed="13.89" length="20.80" shape="697.69,550.54 718.49,550.66"/>
        <lane id=":HK02_9_1" index="1" speed="13.89" length="20.80" shape="697.67,553.74 718.47,553.86"/>
    </edge>
    <edge id=":HK02_11" function="internal">
        <lane id=":HK02_11_0" index="0" speed="9.26" length="5.01" shape="697.67,553.74 702.63,554.48"/>
    </edge>
    <edge id=":HK02_18" function="internal">
        <lane id=":HK02_18_0" index="0" speed="9.26" length="14.34" shape="702.63,554.48 702.91,554.52 706.65,556.79 708.88,560.55 709.60,565.81"/>
    </edge>
    <edge id=":HK02_12" function="internal">
        <lane id=":HK02_12_0" index="0" speed="6.51" length="9.03" shape="703.20,565.77 702.87,563.32 701.83,561.57 700.08,560.51 697.63,560.14"/>
    </edge>
    <edge id=":HK02_13" function="internal">
        <lane id=":HK02_13_0" index="0" speed="13.89" length="20.80" shape="703.20,565.77 703.32,544.97"/>
        <lane id=":HK02_13_1" index="1" speed="13.89" length="20.80" shape="706.40,565.79 706.52,544.99"/>
    </edge>
    <edge id=":HK02_15" function="internal">
        <lane id=":HK02_15_0" index="0" speed="9.26" length="5.01" shape="706.40,565.79 707.14,560.83"/>
    </edge>
    <edge id=":HK02_19" function="internal">
        <lane id=":HK02_19_0" index="0" speed="9.26" length="14.34" shape="707.14,560.83 707.18,560.55 709.45,556.81 713.21,554.58 718.47,553.86"/>
    </edge>
    <edge id=":HK03_0" function="internal">
        <lane id=":HK03_0_0" index="0" speed="6.51" length="9.03" shape="345.73,292.63 343.28,292.96 341.53,294.00 340.47,295.75 340.10,298.20"/>
    </edge>
    <edge id=":HK03_1" function="internal">
        <lane id=":HK03_1_0" index="0" speed="13.89" length="20.80" shape="345.73,292.63 324.93,292.51"/>
        <lane id=":HK03_1_1" index="1" speed="13.89" length="20.80" shape="345.75,289.43 324.95,289.31"/>
    </edge>
    <edge id=":HK03_3" function="internal">
        <lane id=":HK03_3_0" index="0" speed="9.26" length="5.01" shape="345.75,289.43 340.79,288.69"/>
    </edge>
    <edge id=":HK03_16" function="internal">
        <lane id=":HK03_16_0" index="0" speed="9.26" length="14.34" shape="340.79,288.69 340.51,288.65 336.77,286.38 334.54,282.62 333.82,277.36"/>
    </edge>
    <edge id=":HK03_4" function="internal">
        <lane id=":HK03_4_0" index="0" speed="6.51" length="9.03" shape="340.22,277.40 340.55,279.85 341.59,281.60 343.34,282.66 345.79,283.03"/>
    </edge>
    <edge id=":HK03_5" function="internal">
        <lane id=":HK03_5_0" index="0" speed="13.89" length="20.80" shape="340.22,277.40 340.10,298.20"/>
        <lane id=":HK03_5_1" index="1" speed="13.89" length="20.80" shape="337.02,277.38 336.90,298.18"/>
    </edge>
    <edge id=":HK03_7" function="internal">
        <lane id=":HK03_7_0" index="0" speed="9.26" length="5.01" shape="337.02,277.38 336.28,282.34"/>
    </edge>
    <edge id=":HK03_17" function="internal">
        <lane id=":HK03_17_0" index="0" speed="9.26" length="14.34" shape="336.28,282.34 336.24,282.62 333.97,286.36 330.21,288.59 324.95,289.31"/>
    </edge>
    <edge id=":HK03_8" function="internal">
        <lane id=":HK03_8_0" index="0" speed="6.51" length="9.03" shape="324.99,282.92 327.44,282.58 329.19,281.54 330.25,279.79 330.62,277.34"/>
    </edge>
    <edge id=":HK03_9" function="internal">
        <lane id=":HK03_9_0" index="0" speed="13.89" length="20.80" shape="324.99,282.92 345.79,283.03"/>
        <lane id=":HK03_9_1" index="1" speed="13.89" length="20.80" shape="324.97,286.11 345.77,286.23"/>
    </edge>
    <edge id=":HK03_11" function="internal">
        <lane id=":HK03_11_0" index="0" speed="9.26" length="5.01" shape="324.97,286.11 329.93,286.85"/>
    </edge>
    <edge id=":HK03_18" function="internal">
        <lane id=":HK03_18_0" index="0" speed="9.26" length="14.34" shape="329.93,286.85 330.21,286.89 333.95,289.16 336.18,292.92 336.90,298.18"/>
    </edge>
    <edge id=":HK03_12" function="internal">
        <lane id=":HK03_12_0" index="0" speed="6.51" length="9.03" shape="330.50,298.14 330.17,295.69 329.13,293.94 327.38,292.88 324.93,292.51"/>
    </edge>
    <edge id=":HK03_13" function="internal">
        <lane id=":HK03_13_0" index="0" speed="13.89" length="20.80" shape="330.50,298.14 330.62,277.34"/>
        <lane id=":HK03_13_1" index="1" speed="13.89" length="20.80" shape="333.70,298.16 333.82,277.36"/>
    </edge>
    <edge id=":HK03_15" function="internal">
        <lane id=":HK03_15_0" index="0" speed="9.26" length="5.01" shape="333.70,298.16 334.44,293.20"/>
    </edge>
    <edge id=":HK03_19" function="internal">
        <lane id=":HK03_19_0" index="0" speed="9.26" length="14.34" shape="334.44,293.20 334.48,292.92 336.75,289.18 340.51,286.95 345.77,286.23"/>
    </edge>
    <edge id=":HK04_0" function="internal">
        <lane id=":HK04_0_0" index="0" speed="6.51" length="9.03" shape="717.01,825.90 714.56,826.23 712.81,827.27 711.75,829.02 711.38,831.47"/>
    </edge>
    <edge id=":HK04_1" function="internal">
        <lane id=":HK04_1_0" index="0" speed="13.89" length="20.80" shape="717.01,825.90 696.21,825.78"/>
        <lane id=":HK04_1_1" index="1" speed="13.89" length="20.80" shape="717.03,822.70 696.23,822.58"/>
    </edge>
    <edge id=":HK04_3" function="internal">
        <lane id=":HK04_3_0" index="0" speed="9.26" length="5.01" shape="717.03,822.70 712.07,821.96"/>
    </edge>
    <edge id=":HK04_16" function="internal">
        <lane id=":HK04_16_0" index="0" speed="9.26" length="14.34" shape="712.07,821.96 711.79,821.92 708.05,819.65 705.82,815.89 705.10,810.63"/>
    </edge>
    <edge id=":HK04_4" function="internal">
        <lane id=":HK04_4_0" index="0" speed="6.51" length="9.03" shape="711.50,810.67 711.83,813.12 712.87,814.87 714.62,815.93 717.07,816.30"/>
    </edge>
    <edge id=":HK04_5" function="internal">
        <lane id=":HK04_5_0" index="0" speed="13.89" length="20.80" shape="711.50,810.67 711.38,831.47"/>
        <lane id=":HK04_5_1" index="1" speed="13.89" length="20.80" shape="708.30,810.65 708.18,831.45"/>
    </edge>
    <edge id=":HK04_7" function="internal">
        <lane id=":HK04_7_0" index="0" speed="9.26" length="5.01" shape="708.30,810.65 707.56,815.61"/>
    </edge>
    <edge id=":HK04_17" function="internal">
        <lane id=":HK04_17_0" index="0" speed="9.26" length="14.34" shape="707.56,815.61 707.52,815.89 705.25,819.63 701.49,821.86 696.23,822.58"/>
    </edge>
    <edge id=":HK04_8" function="internal">
        <lane id=":HK04_8_0" index="0" speed="6.51" length="9.03" shape="696.27,816.18 698.72,815.85 700.47,814.81 701.53,813.06 701.90,810.61"/>
    </edge>
    <edge id=":HK04_9" function="internal">
        <lane id=":HK04_9_0" index="0" speed="13.89" length="20.80" shape="696.27,816.18 717.07,816.30"/>
        <lane id=":HK04_9_1" index="1" speed="13.89" length="20.80" shape="696.25,819.38 717.05,819.50"/>
    </edge>
    <edge id=":HK04_11" function="internal">
        <lane id=":HK04_11_0" index="0" speed="9.26" length="5.01" shape="696.25,819.38 701.21,820.12"/>
    </edge>
    <edge id=":HK04_18" function="internal">
        <lane id=":HK04_18_0" index="0" speed="9.26" length="14.34" shape="701.21,820.12 701.49,820.16 705.23,822.43 707.46,826.19 708.18,831.45"/>
    </edge>
    <edge id=":HK04_12" function="internal">
        <lane id=":HK04_12_0" index="0" speed="6.51" length="9.03" shape="701.78,831.41 701.45,828.96 700.41,827.21 698.66,826.15 696.21,825.78"/>
    </edge>
    <edge id=":HK04_13" function="internal">
        <lane id=":HK04_13_0" index="0" speed="13.89" length="20.80" shape="701.78,831.41 701.90,810.61"/>
        <lane id=":HK04_13_1" index="1" speed="13.89" length="20.80" shape="704.98,831.43 705.10,810.63"/>
    </edge>
    <edge id=":HK04_15" function="internal">
        <lane id=":HK04_15_0" index="0" speed="9.26" length="5.01" shape="704.98,831.43 705.72,826.47"/>
    </edge>
    <edge id=":HK04_19" function="internal">
        <lane id=":HK04_19_0" index="0" speed="9.26" length="14.34" shape="705.72,826.47 705.76,826.19 708.03,822.45 711.79,820.22 717.05,819.50"/>
    </edge>
    <edge id=":HK05_0" function="internal">
        <lane id=":HK05_0_0" index="0" speed="6.51" length="9.03" shape="342.91,823.91 340.46,824.24 338.71,825.28 337.65,827.03 337.28,829.48"/>
    </edge>
    <edge id=":HK05_1" function="internal">
        <lane id=":HK05_1_0" index="0" speed="13.89" length="20.80" shape="342.91,823.91 322.11,823.79"/>
        <lane id=":HK05_1_1" index="1" speed="13.89" length="20.80" shape="342.93,820.71 322.13,820.59"/>
    </edge>
    <edge id=":HK05_3" function="internal">
        <lane id=":HK05_3_0" index="0" speed="9.26" length="5.01" shape="342.93,820.71 337.97,819.97"/>
    </edge>
    <edge id=":HK05_16" function="internal">
        <lane id=":HK05_16_0" index="0" speed="9.26" length="14.34" shape="337.97,819.97 337.69,819.93 333.95,817.66 331.72,813.90 331.00,808.64"/>
    </edge>
    <edge id=":HK05_4" function="internal">
        <lane id=":HK05_4_0" index="0" speed="6.51" length="9.03" shape="337.40,808.68 337.73,811.13 338.77,812.88 340.52,813.94 342.97,814.31"/>
    </edge>
    <edge id=":HK05_5" function="internal">
        <lane id=":HK05_5_0" index="0" speed="13.89" length="20.80" shape="337.40,808.68 337.28,829.48"/>
        <lane id=":HK05_5_1" index="1" speed="13.89" length="20.80" shape="334.20,808.66 334.08,829.46"/>
    </edge>
    <edge id=":HK05_7" function="internal">
        <lane id=":HK05_7_0" index="0" speed="9.26" length="5.01" shape="334.20,808.66 333.46,813.62"/>
    </edge>
    <edge id=":HK05_17" function="internal">
        <lane id=":HK05_17_0" index="0" speed="9.26" length="14.34" shape="333.46,813.62 333.42,813.90 331.15,817.64 327.39,819.87 322.13,820.59"/>
    </edge>
    <edge id=":HK05_8" function="internal">
        <lane id=":HK05_8_0" index="0" speed="6.51" length="9.03" shape="322.17,814.19 324.62,813.86 326.37,812.82 327.43,811.07 327.80,808.62"/>
    </edge>
    <edge id=":HK05_9" function="internal">
        <lane id=":HK05_9_0" index="0" speed="13.89" length="20.80" shape="322.17,814.19 342.97,814.31"/>
        <lane id=":HK05_9_1" index="1" speed="13.89" length="20.80" shape="322.15,817.39 342.95,817.51"/>
    </edge>
    <edge id=":HK05_11" function="internal">
        <lane id=":HK05_11_0" index="0" speed="9.26" length="5.01" shape="322.15,817.39 327.11,818.13"/>
    </edge>
    <edge id=":HK05_18" function="internal">
        <lane id=":HK05_18_0" index="0" speed="9.26" length="14.34" shape="327.11,818.13 327.39,818.17 331.13,820.44 333.36,824.20 334.08,829.46"/>
    </edge>
    <edge id=":HK05_12" function="internal">
        <lane id=":HK05_12_0" index="0" speed="6.51" length="9.03" shape="327.68,829.42 327.35,826.97 326.31,825.22 324.56,824.16 322.11,823.79"/>
    </edge>
    <edge id=":HK05_13" function="internal">
        <lane id=":HK05_13_0" index="0" speed="13.89" length="20.80" shape="327.68,829.42 327.80,808.62"/>
        <lane id=":HK05_13_1" index="1" speed="13.89" length="20.80" shape="330.88,829.44 331.00,808.64"/>
    </edge>
    <edge id=":HK05_15" function="internal">
        <lane id=":HK05_15_0" index="0" speed="9.26" length="5.01" shape="330.88,829.44 331.62,824.48"/>
    </edge>
    <edge id=":HK05_19" function="internal">
        <lane id=":HK05_19_0" index="0" speed="9.26" length="14.34" shape="331.62,824.48 331.66,824.20 333.93,820.46 337.69,818.23 342.95,817.51"/>
    </edge>
    <edge id=":HK06_0" function="internal">
        <lane id=":HK06_0_0" index="0" speed="6.51" length="9.03" shape="719.85,294.63 717.40,294.96 715.65,296.00 714.59,297.75 714.22,300.20"/>
    </edge>
    <edge id=":HK06_1" function="internal">
        <lane id=":HK06_1_0" index="0" speed="13.89" length="20.80" shape="719.85,294.63 699.05,294.51"/>
        <lane id=":HK06_1_1" index="1" speed="13.89" length="20.80" shape="719.87,291.43 699.07,291.31"/>
    </edge>
    <edge id=":HK06_3" function="internal">
        <lane id=":HK06_3_0" index="0" speed="9.26" length="5.01" shape="719.87,291.43 714.91,290.69"/>
    </edge>
    <edge id=":HK06_16" function="internal">
        <lane id=":HK06_16_0" index="0" speed="9.26" length="14.34" shape="714.91,290.69 714.63,290.65 710.89,288.38 708.66,284.62 707.94,279.36"/>
    </edge>
    <edge id=":HK06_4" function="internal">
        <lane id=":HK06_4_0" index="0" speed="6.51" length="9.03" shape="714.34,279.40 714.67,281.85 715.71,283.60 717.46,284.66 719.91,285.03"/>
    </edge>
    <edge id=":HK06_5" function="internal">
        <lane id=":HK06_5_0" index="0" speed="13.89" length="20.80" shape="714.34,279.40 714.22,300.20"/>
        <lane id=":HK06_5_1" index="1" speed="13.89" length="20.80" shape="711.14,279.38 711.02,300.18"/>
    </edge>
    <edge id=":HK06_7" function="internal">
        <lane id=":HK06_7_0" index="0" speed="9.26" length="5.01" shape="711.14,279.38 710.40,284.34"/>
    </edge>
    <edge id=":HK06_17" function="internal">
        <lane id=":HK06_17_0" index="0" speed="9.26" length="14.34" shape="710.40,284.34 710.36,284.62 708.09,288.36 704.33,290.59 699.07,291.31"/>
    </edge>
    <edge id=":HK06_8" function="internal">
        <lane id=":HK06_8_0" index="0" speed="6.51" length="9.03" shape="699.11,284.91 701.56,284.58 703.31,283.54 704.37,281.79 704.74,279.34"/>
    </edge>
    <edge id=":HK06_9" function="internal">
        <lane id=":HK06_9_0" index="0" speed="13.89" length="20.80" shape="699.11,284.91 719.91,285.03"/>
        <lane id=":HK06_9_1" index="1" speed="13.89" length="20.80" shape="699.09,288.11 719.89,288.23"/>
    </edge>
    <edge id=":HK06_11" function="internal">
        <lane id=":HK06_11_0" index="0" speed="9.26" length="5.01" shape="699.09,288.11 704.05,288.85"/>
    </edge>
    <edge id=":HK06_18" function="internal">
        <lane id=":HK06_18_0" index="0" speed="9.26" length="14.34" shape="704.05,288.85 704.33,288.89 708.07,291.16 710.30,294.92 711.02,300.18"/>
    </edge>
    <edge id=":HK06_12" function="internal">
        <lane id=":HK06_12_0" index="0" speed="6.51" length="9.03" shape="704.62,300.14 704.29,297.69 703.25,295.94 701.50,294.88 699.05,294.51"/>
    </edge>
    <edge id=":HK06_13" function="internal">
        <lane id=":HK06_13_0" index="0" speed="13.89" length="20.80" shape="704.62,300.14 704.74,279.34"/>
        <lane id=":HK06_13_1" index="1" speed="13.89" length="20.80" shape="707.82,300.16 707.94,279.36"/>
    </edge>
    <edge id=":HK06_15" function="internal">
        <lane id=":HK06_15_0" index="0" speed="9.26" length="5.01" shape="707.82,300.16 708.56,295.20"/>
    </edge>
    <edge id=":HK06_19" function="internal">
        <lane id=":HK06_19_0" index="0" speed="9.26" length="14.34" shape="708.56,295.20 708.60,294.92 710.87,291.18 714.63,288.95 719.89,288.23"/>
    </edge>

    <edge id="E_HK02_in" from="E_HK02" to="HK02" priority="-1">
        <lane id="E_HK02_in_0" index="0" speed="13.89" length="322.15" shape="1040.58,561.98 718.43,560.26"/>
        <lane id="E_HK02_in_1" index="1" speed="13.89" length="322.15" shape="1040.60,558.78 718.45,557.06"/>
    </edge>
    <edge id="E_HK02_out" from="HK02" to="E_HK02" priority="-1">
        <lane id="E_HK02_out_0" index="0" speed="13.89" length="322.15" shape="718.49,550.66 1040.64,552.38"/>
        <lane id="E_HK02_out_1" index="1" speed="13.89" length="322.15" shape="718.47,553.86 1040.62,555.58"/>
    </edge>
    <edge id="E_HK04_in" from="E_HK04" to="HK04" priority="-1">
        <lane id="E_HK04_in_0" index="0" speed="13.89" length="322.14" shape="1039.15,827.62 717.01,825.90"/>
        <lane id="E_HK04_in_1" index="1" speed="13.89" length="322.14" shape="1039.17,824.42 717.03,822.70"/>
    </edge>
    <edge id="E_HK04_out" from="HK04" to="E_HK04" priority="-1">
        <lane id="E_HK04_out_0" index="0" speed="13.89" length="322.14" shape="717.07,816.30 1039.21,818.02"/>
        <lane id="E_HK04_out_1" index="1" speed="13.89" length="322.14" shape="717.05,819.50 1039.19,821.22"/>
    </edge>
    <edge id="E_HK06_in" from="E_HK06" to="HK06" priority="-1">
        <lane id="E_HK06_in_0" index="0" speed="13.89" length="322.15" shape="1042.00,296.35 719.85,294.63"/>
        <lane id="E_HK06_in_1" index="1" speed="13.89" length="322.15" shape="1042.02,293.15 719.87,291.43"/>
    </edge>
    <edge id="E_HK06_out" from="HK06" to="E_HK06" priority="-1">
        <lane id="E_HK06_out_0" index="0" speed="13.89" length="322.15" shape="719.91,285.03 1042.06,286.75"/>
        <lane id="E_HK06_out_1" index="1" speed="13.89" length="322.15" shape="719.89,288.23 1042.04,289.95"/>
    </edge>
    <edge id="HK01_HK02" from="HK01" to="HK02" priority="-1">
        <lane id="HK01_HK02_0" index="0" speed="13.89" length="353.32" shape="344.38,548.67 697.69,550.54"/>
        <lane id="HK01_HK02_1" index="1" speed="13.89" length="353.32" shape="344.36,551.87 697.67,553.74"/>
    </edge>
    <edge id="HK01_HK03" from="HK01" to="HK03" priority="-1">
        <lane id="HK01_HK03_0" index="0" speed="13.89" length="244.84" shape="329.21,542.98 330.50,298.14"/>
        <lane id="HK01_HK03_1" index="1" speed="13.89" length="244.84" shape="332.41,543.00 333.70,298.16"/>
    </edge>
    <edge id="HK01_HK05" from="HK01" to="HK05" priority="-1">
        <lane id="HK01_HK05_0" index="0" speed="13.89" length="244.84" shape="338.69,563.84 337.40,808.68"/>
        <lane id="HK01_HK05_1" index="1" speed="13.89" length="244.84" shape="335.49,563.82 334.20,808.66"/>
    </edge>
    <edge id="HK02_HK01" from="HK02" to="HK01" priority="-1">
        <lane id="HK02_HK01_0" index="0" speed="13.89" length="353.32" shape="697.63,560.14 344.32,558.27"/>
        <lane id="HK02_HK01_1" index="1" speed="13.89" length="353.32" shape="697.65,556.94 344.34,555.07"/>
    </edge>
    <edge id="HK02_HK04" from="HK02" to="HK04" priority="-1">
        <lane id="HK02_HK04_0" index="0" speed="13.89" length="244.84" shape="712.80,565.83 711.50,810.67"/>
        <lane id="HK02_HK04_1" index="1" speed="13.89" length="244.84" shape="709.60,565.81 708.30,810.65"/>
    </edge>
    <edge id="HK02_HK06" from="HK02" to="HK06" priority="-1">
        <lane id="HK02_HK06_0" index="0" speed="13.89" length="244.83" shape="703.32,544.97 704.62,300.14"/>
        <lane id="HK02_HK06_1" index="1" speed="13.89" length="244.83" shape="706.52,544.99 707.82,300.16"/>
    </edge>
    <edge id="HK03_HK01" from="HK03" to="HK01" priority="-1">
        <lane id="HK03_HK01_0" index="0" speed="13.89" length="244.84" shape="340.10,298.20 338.81,543.04"/>
        <lane id="HK03_HK01_1" index="1" speed="13.89" length="244.84" shape="336.90,298.18 335.61,543.02"/>
    </edge>
    <edge id="HK03_HK06" from="HK03" to="HK06" priority="-1">
        <lane id="HK03_HK06_0" index="0" speed="13.89" length="353.33" shape="345.79,283.03 699.11,284.91"/>
        <lane id="HK03_HK06_1" index="1" speed="13.89" length="353.33" shape="345.77,286.23 699.09,288.11"/>
    </edge>
    <edge id="HK04_HK02" from="HK04" to="HK02" priority="-1">
        <lane id="HK04_HK02_0" index="0" speed="13.89" length="244.84" shape="701.90,810.61 703.20,565.77"/>
        <lane id="HK04_HK02_1" index="1" speed="13.89" length="244.84" shape="705.10,810.63 706.40,565.79"/>
    </edge>
    <edge id="HK04_HK05" from="HK04" to="HK05" priority="-1">
        <lane id="HK04_HK05_0" index="0" speed="13.89" length="353.31" shape="696.21,825.78 342.91,823.91"/>
        <lane id="HK04_HK05_1" index="1" speed="13.89" length="353.31" shape="696.23,822.58 342.93,820.71"/>
    </edge>
    <edge id="HK05_HK01" from="HK05" to="HK01" priority="-1">
        <lane id="HK05_HK01_0" index="0" speed="13.89" length="244.84" shape="327.80,808.62 329.09,563.78"/>
        <lane id="HK05_HK01_1" index="1" speed="13.89" length="244.84" shape="331.00,808.64 332.29,563.80"/>
    </edge>
    <edge id="HK05_HK04" from="HK05" to="HK04" priority="-1">
        <lane id="HK05_HK04_0" index="0" speed="13.89" length="353.31" shape="342.97,814.31 696.27,816.18"/>
        <lane id="HK05_HK04_1" index="1" speed="13.89" length="353.31" shape="342.95,817.51 696.25,819.38"/>
    </edge>
    <edge id="HK06_HK02" from="HK06" to="HK02" priority="-1">
        <lane id="HK06_HK02_0" index="0" speed="13.89" length="244.83" shape="714.22,300.20 712.92,545.03"/>
        <lane id="HK06_HK02_1" index="1" speed="13.89" length="244.83" shape="711.02,300.18 709.72,545.01"/>
    </edge>
    <edge id="HK06_HK03" from="HK06" to="HK03" priority="-1">
        <lane id="HK06_HK03_0" index="0" speed="13.89" length="353.33" shape="699.05,294.51 345.73,292.63"/>
        <lane id="HK06_HK03_1" index="1" speed="13.89" length="353.33" shape="699.07,291.31 345.75,289.43"/>
    </edge>
    <edge id="N_HK04_in" from="N_HK04" to="HK04" priority="-1">
        <lane id="N_HK04_in_0" index="0" speed="13.89" length="277.38" shape="700.31,1108.79 701.78,831.41"/>
        <lane id="N_HK04_in_1" index="1" speed="13.89" length="277.38" shape="703.51,1108.81 704.98,831.43"/>
    </edge>
    <edge id="N_HK04_out" from="HK04" to="N_HK04" priority="-1">
        <lane id="N_HK04_out_0" index="0" speed="13.89" length="277.38" shape="711.38,831.47 709.91,1108.85"/>
        <lane id="N_HK04_out_1" index="1" speed="13.89" length="277.38" shape="708.18,831.45 706.71,1108.83"/>
    </edge>
    <edge id="N_HK05_in" from="N_HK05" to="HK05" priority="-1">
        <lane id="N_HK05_in_0" index="0" speed="13.89" length="277.37" shape="326.21,1106.79 327.68,829.42"/>
        <lane id="N_HK05_in_1" index="1" speed="13.89" length="277.37" shape="329.41,1106.81 330.88,829.44"/>
    </edge>
    <edge id="N_HK05_out" from="HK05" to="N_HK05" priority="-1">
        <lane id="N_HK05_out_0" index="0" speed="13.89" length="277.37" shape="337.28,829.48 335.81,1106.85"/>
        <lane id="N_HK05_out_1" index="1" speed="13.89" length="277.37" shape="334.08,829.46 332.61,1106.83"/>
    </edge>
    <edge id="S_HK03_in" from="S_HK03" to="HK03" priority="-1">
        <lane id="S_HK03_in_0" index="0" speed="13.89" length="277.37" shape="341.69,0.03 340.22,277.40"/>
        <lane id="S_HK03_in_1" index="1" speed="13.89" length="277.37" shape="338.49,0.01 337.02,277.38"/>
    </edge>
    <edge id="S_HK03_out" from="HK03" to="S_HK03" priority="-1">
        <lane id="S_HK03_out_0" index="0" speed="13.89" length="277.37" shape="330.62,277.34 332.09,-0.03"/>
        <lane id="S_HK03_out_1" index="1" speed="13.89" length="277.37" shape="333.82,277.36 335.29,-0.01"/>
    </edge>
    <edge id="S_HK06_in" from="S_HK06" to="HK06" priority="-1">
        <lane id="S_HK06_in_0" index="0" speed="13.89" length="277.38" shape="715.82,2.02 714.34,279.40"/>
        <lane id="S_HK06_in_1" index="1" speed="13.89" length="277.38" shape="712.62,2.00 711.14,279.38"/>
    </edge>
    <edge id="S_HK06_out" from="HK06" to="S_HK06" priority="-1">
        <lane id="S_HK06_out_0" index="0" speed="13.89" length="277.38" shape="704.74,279.34 706.22,1.96"/>
        <lane id="S_HK06_out_1" index="1" speed="13.89" length="277.38" shape="707.94,279.36 709.42,1.98"/>
    </edge>
    <edge id="W_HK01_in" from="W_HK01" to="HK01" priority="-1">
        <lane id="W_HK01_in_0" index="0" speed="13.89" length="322.14" shape="1.44,546.85 323.58,548.56"/>
        <lane id="W_HK01_in_1" index="1" speed="13.89" length="322.14" shape="1.42,550.05 323.56,551.75"/>
    </edge>
    <edge id="W_HK01_out" from="HK01" to="W_HK01" priority="-1">
        <lane id="W_HK01_out_0" index="0" speed="13.89" length="322.14" shape="323.52,558.15 1.38,556.45"/>