<?xml version="1.0" encoding="UTF-8"?>

<!-- generated on 2026-03-24 14:36:46.712883 by Eclipse SUMO randomTrips.py v1_26_0+0000-fa7df22d7f1
<configuration>
    <net-file value="D:\WeSaveTime-ASEAN\sumo\danang\danang.net.xml"/>
    <additional-files value="D:\WeSaveTime-ASEAN\sumo\danang\danang.vtypes.xml"/>
    <weights-prefix value="D:\WeSaveTime-ASEAN\sumo\danang\danang.weights"/>
    <output-trip-file value="D:\WeSaveTime-ASEAN\sumo\danang\danang.ma_.trips.xml"/>
    <prefix value="ma_"/>
    <trip-attributes value="type=&quot;motorbike&quot;"/>
    <fringe-factor value="1"/>
    <random value="True"/>
    <remove-loops value="True"/>
    <end value="600.0"/>
    <period value="0.44"/>
</configuration>
-->

<routes xmlns:xsi="http://www.w3.org/2001/XMLSchema-instance" xsi:noNamespaceSchemaLocation="http://sumo.dlr.de/xsd/routes_file.xsd">
    <trip id="ma_0" depart="0.00" from="302751295#1" to="828724757#1" type="motorbike"/>
    <trip id="ma_1" depart="0.44" from="295449627#4" to="295408465#1" type="motorbike"/>
    <trip id="ma_2" depart="0.88" from="-1076293830#1" to="-642353277" type="motorbike"/>
    <trip id="ma_3" depart="1.32" from="295449625#1" to="695030266" type="motorbike"/>
    <trip id="ma_4" depart="1.76" from="694601892" to="695496042#1" type="motorbike"/>
    <trip id="ma_5" depart="2.20" from="695490086#1" to="695025562#1" type="motorbike"/>
    <trip id="ma_6" depart="2.64" from="693885803#27" to="-765351891#0" type="motorbike"/>
    <trip id="ma_7" depart="3.08" from="693885804#2" to="561913437#3" type="motorbike"/>
    <trip id="ma_8" depart="3.52" from="828678875" to="697200467#8" type="motorbike"/>
    <trip id="ma_9" depart="3.96" from="-35950850#24" to="-828678812" type="motorbike"/>
    <trip id="ma_10" depart="4.40" from="697200467#10" to="828678868" type="motorbike"/>
    <trip id="ma_11" depart="4.84" from="1280614504#0" to="-118672633#3" type="motorbike"/>
    <trip id="ma_12" depart="5.28" from="-35950868#25" to="-118673921#2" type="motorbike"/>
    <trip id="ma_13" depart="5.72" from="694594970#0" to="295394152#1" type="motorbike"/>
    <trip id="ma_14" depart="6.16" from="828678770" to="695502611#1" type="motorbike"/>
    <trip id="ma_15" depart="6.60" from="-828678807" to="697200467#11" type="motorbike"/>
    <trip id="ma_16" depart="7.04" from="-372220804#3" to="-39354228#8" type="motorbike"/>
    <trip id="ma_17" depart="7.48" from="295408462#10" to="561667996#2" type="motorbike"/>
    <trip id="ma_18" depart="7.92" from="408161670#22" to="828724768#4" type="motorbike"/>
    <trip id="ma_19" depart="8.36" from="695496039#0" to="1418093030" type="motorbike"/>
    <trip id="ma_20" depart="8.80" from="295408459#7" to="693885804#2" type="motorbike"/>
    <trip id="ma_21" depart="9.24" from="676458408" to="302751282" type="motorbike"/>
    <trip id="ma_22" depart="9.68" from="694601892" to="828724684#0" type="motorbike"/>
    <trip id="ma_23" depart="10.12" from="695490087#1" to="35950925#1" type="motorbike"/>
    <trip id="ma_24" depart="10.56" from="295408452#16" to="693885802#2" type="motorbike"/>
    <trip id="ma_25" depart="11.00" from="695040552#1" to="828724695" type="motorbike"/>
    <trip id="ma_26" depart="11.44" from="300947940" to="693330103#2" type="motorbike"/>
    <trip id="ma_27" depart="11.88" from="118570164#1" to="405962811#2" type="motorbike"/>
    <trip id="ma_28" depart="12.32" from="295128790#3" to="-695446623#0" type="motorbike"/>
    <trip id="ma_29" depart="12.76" from="295408452#7" to="405113892#4" type="motorbike"/>
    <trip id="ma_30" depart="13.20" from="408161670#23" to="695496039#0" type="motorbike"/>
    <trip id="ma_31" depart="13.64" from="-372222431" to="698993299" type="motorbike"/>
    <trip id="ma_32" depart="14.08" from="295408452#6" to="39368999#15" type="motorbike"/>
    <trip id="ma_33" depart="14.52" from="693330103#0" to="694767769" type="motorbike"/>
    <trip id="ma_34" depart="14.96" from="1282340733#1" to="295128790#3" type="motorbike"/>
    <trip id="ma_35" depart="15.40" from="405113895" to="1446454670" type="motorbike"/>
    <trip id="ma_36" depart="15.84" from="1280219267" to="295408461#5" type="motorbike"/>
    <trip id="ma_37" depart="16.28" from="676450959" to="39368999#11" type="motorbike"/>
    <trip id="ma_38" depart="16.72" from="693885804#2" to="696168834#1" type="motorbike"/>
    <trip id="ma_39" depart="17.16" from="1355319664" to="695504114#1" type="motorbike"/>
    <trip id="ma_40" depart="17.60" from="-302751295#16" to="35950925#5" type="motorbike"/>
    <trip id="ma_41" depart="18.04" from="964171425#3" to="-828678788#1" type="motorbike"/>
    <trip id="ma_42" depart="18.48" from="343417844#0" to="695510007#0" type="motorbike"/>
    <trip id="ma_43" depart="18.92" from="695295267#0" to="295128790#10" type="motorbike"/>
    <trip id="ma_44" depart="19.36" from="695295267#0" to="343417844#0" type="motorbike"/>
    <trip id="ma_45" depart="19.80" from="1210918872#0" to="695295267#0" type="motorbike"/>
    <trip id="ma_46" depart="20.24" from="-295449629#2" to="372467085#1" type="motorbike"/>
    <trip id="ma_47" depart="20.68" from="321069035#1" to="1034028676#2" type="motorbike"/>
    <trip id="ma_48" depart="21.12" from="695295267#2" to="-828724746" type="motorbike"/>
    <trip id="ma_49" depart="21.56" from="302751286#2" to="695295265#0" type="motorbike"/>
    <trip id="ma_50" depart="22.00" from="1280219259#1" to="302751284#3" type="motorbike"/>
    <trip id="ma_51" depart="22.44" from="828724755#1" to="693885804#0" type="motorbike"/>
    <trip id="ma_52" depart="22.88" from="1034028675#2" to="35950868#29" type="motorbike"/>
    <trip id="ma_53" depart="23.32" from="695496039#2" to="408161672#0" type="motorbike"/>
    <trip id="ma_54" depart="23.76" from="-641077469" to="562701502#1" type="motorbike"/>
    <trip id="ma_55" depart="24.20" from="1391330070#12" to="695040105#3" type="motorbike"/>
    <trip id="ma_56" depart="24.64" from="-118672606#1" to="695504114#4" type="motorbike"/>
    <trip id="ma_57" depart="25.08" from="1210918873#0" to="-561913437#3" type="motorbike"/>
    <trip id="ma_58" depart="25.52" from="697200467#11" to="-641487801" type="motorbike"/>
    <trip id="ma_59" depart="25.96" from="295449627#2" to="697200467#11" type="motorbike"/>
    <trip id="ma_60" depart="26.40" from="295408462#10" to="1426764507#2" type="motorbike"/>
    <trip id="ma_61" depart="26.84" from="695025562#1" to="-118673921#0" type="motorbike"/>
    <trip id="ma_62" depart="27.28" from="828678860#1" to="295408461#5" type="motorbike"/>
    <trip id="ma_63" depart="27.72" from="695295267#0" to="1387292390#4" type="motorbike"/>
    <trip id="ma_64" depart="28.16" from="-643237806#1" to="695040105#3" type="motorbike"/>
    <trip id="ma_65" depart="28.60" from="295386152#7" to="693416427" type="motorbike"/>
    <trip id="ma_66" depart="29.04" from="408161670#27" to="910359052#3" type="motorbike"/>
    <trip id="ma_67" depart="29.48" from="828724761" to="694594970#0" type="motorbike"/>
    <trip id="ma_68" depart="29.92" from="828678775" to="697200467#9" type="motorbike"/>
    <trip id="ma_69" depart="30.36" from="695496042#0" to="693885803#27" type="motorbike"/>
    <trip id="ma_70" depart="30.80" from="-828678860#3" to="-828678778" type="motorbike"/>
    <trip id="ma_71" depart="31.24" from="-372463312" to="697200467#4-AddedOffRampEdge" type="motorbike"/>
    <trip id="ma_72" depart="31.68" from="-704621733#0" to="673151142#3" type="motorbike"/>
    <trip id="ma_73" depart="32.12" from="-676465938#1" to="695496039#1" type="motorbike"/>
    <trip id="ma_74" depart="32.56" from="39368999#21" to="408161670#23" type="motorbike"/>
    <trip id="ma_75" depart="33.00" from="-35950868#26" to="295394152#0" type="motorbike"/>
    <trip id="ma_76" depart="33.44" from="-695040102#0" to="1280219259#0" type="motorbike"/>
    <trip id="ma_77" depart="33.88" from="828724763#4" to="828678813" type="motorbike"/>
    <trip id="ma_78" depart="34.32" from="1280614504#0" to="295408461#5" type="motorbike"/>
    <trip id="ma_79" depart="34.76" from="698067307#1" to="295449627#5" type="motorbike"/>
    <trip id="ma_80" depart="35.20" from="-828678803#0" to="199383481" type="motorbike"/>
    <trip id="ma_81" depart="35.64" from="1282340737" to="118570164#3" type="motorbike"/>
    <trip id="ma_82" depart="36.08" from="828724683" to="1346339141#1" type="motorbike"/>
    <trip id="ma_83" depart="36.52" from="-35950883#9" to="302751284#3" type="motorbike"/>
    <trip id="ma_84" depart="36.96" from="295449627#3" to="408161670#23" type="motorbike"/>
    <trip id="ma_85" depart="37.40" from="-118566873#1" to="160628085#0" type="motorbike"/>
    <trip id="ma_86" depart="37.84" from="695295267#0" to="693416427" type="motorbike"/>
    <trip id="ma_87" depart="38.28" from="1280219267" to="696168834#0" type="motorbike"/>
    <trip id="ma_88" depart="38.72" from="693885804#2" to="118570159#11" type="motorbike"/>
    <trip id="ma_89" depart="39.16" from="-689583178#2" to="694772625#0" type="motorbike"/>
    <trip id="ma_90" depart="39.60" from="828724796" to="695496039#1" type="motorbike"/>
    <trip id="ma_91" depart="40.04" from="828678810#2" to="560329291#2" type="motorbike"/>
    <trip id="ma_92" depart="40.48" from="562701502#2" to="673151142#4" type="motorbike"/>
    <trip id="ma_93" depart="40.92" from="694598419#0" to="695040105#0" type="motorbike"/>
    <trip id="ma_94" depart="41.36" from="642050077" to="295449627#3" type="motorbike"/>
    <trip id="ma_95" depart="41.80" from="695496039#2" to="118573606#2" type="motorbike"/>
    <trip id="ma_96" depart="42.24" from="118672607#5" to="676439266" type="motorbike"/>
    <trip id="ma_97" depart="42.68" from="693885804#2" to="1280219257#2" type="motorbike"/>
    <trip id="ma_98" depart="43.12" from="295449627#3" to="695502614" type="motorbike"/>
    <trip id="ma_99" depart="43.56" from="694600787" to="160628085#2" type="motorbike"/>
    <trip id="ma_100" depart="44.00" from="695295267#0" to="-118673921#1" type="motorbike"/>
    <trip id="ma_101" depart="44.44" from="295128790#0" to="295408465#0" type="motorbike"/>
    <trip id="ma_102" depart="44.88" from="-372466117#1" to="-118575970#1" type="motorbike"/>
    <trip id="ma_103" depart="45.32" from="828724754#0" to="697200467#8" type="motorbike"/>
    <trip id="ma_104" depart="45.76" from="408161670#22" to="695496039#0" type="motorbike"/>
    <trip id="ma_105" depart="46.20" from="1034028675#0" to="302751284#3" type="motorbike"/>
    <trip id="ma_106" depart="46.64" from="35950897#13" to="-118570168#4" type="motorbike"/>
    <trip id="ma_107" depart="47.08" from="-39368999#20" to="696168834#0" type="motorbike"/>
    <trip id="ma_108" depart="47.52" from="695025562#0" to="118570159#7" type="motorbike"/>
    <trip id="ma_109" depart="47.96" from="695544822" to="697200463#1" type="motorbike"/>
    <trip id="ma_110" depart="48.40" from="35950897#10" to="-698053103" type="motorbike"/>
    <trip id="ma_111" depart="48.84" from="697200467#9" to="408161670#22" type="motorbike"/>
    <trip id="ma_112" depart="49.28" from="964171425#6" to="-828724726#0" type="motorbike"/>
    <trip id="ma_113" depart="49.72" from="406779270" to="695446625#3" type="motorbike"/>
    <trip id="ma_114" depart="50.16" from="-405113896#0" to="-828678862#0" type="motorbike"/>
    <trip id="ma_115" depart="50.60" from="697200467#1" to="118570147#1" type="motorbike"/>
    <trip id="ma_116" depart="51.04" from="-828678908" to="372220804#30" type="motorbike"/>
    <trip id="ma_117" depart="51.48" from="1034028677#1" to="118672299#2" type="motorbike"/>
    <trip id="ma_118" depart="51.92" from="964171425#6" to="-828678867" type="motorbike"/>
    <trip id="ma_119" depart="52.36" from="694772625#0" to="964171425#2" type="motorbike"/>
    <trip id="ma_120" depart="52.80" from="-372464931#3" to="693416427" type="motorbike"/>
    <trip id="ma_121" depart="53.24" from="295408463#0" to="-118555049#9" type="motorbike"/>
    <trip id="ma_122" depart="53.68" from="693885803#26" to="-295449629#2" type="motorbike"/>
    <trip id="ma_123" depart="54.12" from="300949143" to="1280089201#0" type="motorbike"/>
    <trip id="ma_124" depart="54.56" from="828724799#1" to="779462187#1" type="motorbike"/>
    <trip id="ma_125" depart="55.00" from="-642098832#1" to="698046188#1" type="motorbike"/>
    <trip id="ma_126" depart="55.44" from="561667996#2" to="295408460#3" type="motorbike"/>
    <trip id="ma_127" depart="55.88" from="828724769" to="35950864#24" type="motorbike"/>
    <trip id="ma_128" depart="56.32" from="-695510008#0" to="408161670#18" type="motorbike"/>
    <trip id="ma_129" depart="56.76" from="695040552#0" to="35950868#15" type="motorbike"/>
    <trip id="ma_130" depart="57.20" from="-321069035#5" to="-697870570" type="motorbike"/>
    <trip id="ma_131" depart="57.64" from="302751284#3" to="295408452#6" type="motorbike"/>
    <trip id="ma_132" depart="58.08" from="1280219257#1" to="295386152#1" type="motorbike"/>
    <trip id="ma_133" depart="58.52" from="-641092773" to="408161670#0" type="motorbike"/>
    <trip id="ma_134" depart="58.96" from="-562701507#1" to="698046188#1" type="motorbike"/>
    <trip id="ma_135" depart="59.40" from="408161670#22" to="295408468#0" type="motorbike"/>
    <trip id="ma_136" depart="59.84" from="-560329291#1" to="697869050#0" type="motorbike"/>
    <trip id="ma_137" depart="60.28" from="695025562#1" to="295408452#7" type="motorbike"/>
    <trip id="ma_138" depart="60.72" from="118573606#13" to="695025562#0" type="motorbike"/>
    <trip id="ma_139" depart="61.16" from="-372464937#1" to="695496042#2" type="motorbike"/>
    <trip id="ma_140" depart="61.60" from="695510007#0" to="35950925#0" type="motorbike"/>
    <trip id="ma_141" depart="62.04" from="1280219259#0" to="-828724768#3" type="motorbike"/>
    <trip id="ma_142" depart="62.48" from="828724745" to="-831070296" type="motorbike"/>
    <trip id="ma_143" depart="62.92" from="910359052#8" to="695496039#0" type="motorbike"/>
    <trip id="ma_144" depart="63.36" from="35950897#0" to="910359052#7" type="motorbike"/>
    <trip id="ma_145" depart="63.80" from="831070297#1" to="895447147" type="motorbike"/>
    <trip id="ma_146" depart="64.24" from="697870570" to="831070296" type="motorbike"/>
    <trip id="ma_147" depart="64.68" from="910359052#5" to="695490087#1" type="motorbike"/>
    <trip id="ma_148" depart="65.12" from="295408462#0" to="-828678793#0" type="motorbike"/>
    <trip id="ma_149" depart="65.56" from="-673151198#0" to="-828724794" type="motorbike"/>
    <trip id="ma_150" depart="66.00" from="-372466114#2" to="696991611#0" type="motorbike"/>
    <trip id="ma_151" depart="66.44" from="1426764507#0" to="408161670#18" type="motorbike"/>
    <trip id="ma_152" depart="66.88" from="693885804#2" to="-39368999#5" type="motorbike"/>
    <trip id="ma_153" depart="67.32" from="35950897#13" to="295408468#4" type="motorbike"/>
    <trip id="ma_154" depart="67.76" from="694598419#1" to="1282340716" type="motorbike"/>
    <trip id="ma_155" depart="68.20" from="695496039#2" to="1282340719" type="motorbike"/>
    <trip id="ma_156" depart="68.64" from="695295268" to="1279915895#0" type="motorbike"/>
    <trip id="ma_157" depart="69.08" from="964171425#5" to="35950897#0" type="motorbike"/>
    <trip id="ma_158" depart="69.52" from="118570174#1" to="321069035#1" type="motorbike"/>
    <trip id="ma_159" depart="69.96" from="295408452#11" to="642354268#1" type="motorbike"/>
    <trip id="ma_160" depart="70.40" from="1282340713#0" to="295408452#10" type="motorbike"/>
    <trip id="ma_161" depart="70.84" from="695040105#0" to="302751284#3" type="motorbike"/>
    <trip id="ma_162" depart="71.28" from="-118672606#5" to="695040552#1" type="motorbike"/>
    <trip id="ma_163" depart="71.72" from="697200467#10" to="-828678787#0" type="motorbike"/>
    <trip id="ma_164" depart="72.16" from="695496042#2" to="-39368999#16" type="motorbike"/>
    <trip id="ma_165" depart="72.60" from="-828724696" to="695025560#0" type="motorbike"/>
    <trip id="ma_166" depart="73.04" from="118570167#0" to="160628085#2" type="motorbike"/>
    <trip id="ma_167" depart="73.48" from="693416739#0" to="695025562#0" type="motorbike"/>
    <trip id="ma_168" depart="73.92" from="295408459#5" to="39368999#2" type="motorbike"/>
    <trip id="ma_169" depart="74.36" from="695496039#3" to="693885804#2" type="motorbike"/>
    <trip id="ma_170" depart="74.80" from="302751284#0" to="695496039#0" type="motorbike"/>
    <trip id="ma_171" depart="75.24" from="697200467#8" to="302751295#3" type="motorbike"/>
    <trip id="ma_172" depart="75.68" from="641397122#1" to="695502611#0" type="motorbike"/>
    <trip id="ma_173" depart="76.12" from="-302751295#6" to="372467078#3" type="motorbike"/>
    <trip id="ma_174" depart="76.56" from="302751284#3" to="1426764507#0" type="motorbike"/>
    <trip id="ma_175" depart="77.00" from="1387292390#1" to="828678775" type="motorbike"/>
    <trip id="ma_176" depart="77.44" from="118673937#3" to="1280089201#1" type="motorbike"/>
    <trip id="ma_177" depart="77.88" from="828678787#0" to="118570159#12" type="motorbike"/>
    <trip id="ma_178" depart="78.32" from="693885802#2" to="642086910" type="motorbike"/>
    <trip id="ma_179" depart="78.76" from="295408452#9" to="695496042#0" type="motorbike"/>
    <trip id="ma_180" depart="79.20" from="695496039#0" to="-35950864#23" type="motorbike"/>
    <trip id="ma_181" depart="79.64" from="1280219267" to="695429325#1" type="motorbike"/>
    <trip id="ma_182" depart="80.08" from="693111346#0" to="695025562#1" type="motorbike"/>
    <trip id="ma_183" depart="80.52" from="-321069061" to="695446625#3" type="motorbike"/>
    <trip id="ma_184" depart="80.96" from="828678774" to="-118573603#2" type="motorbike"/>
    <trip id="ma_185" depart="81.40" from="689583178#3" to="295408465#0" type="motorbike"/>
    <trip id="ma_186" depart="81.84" from="-405962814" to="696168834#0" type="motorbike"/>
    <trip id="ma_187" depart="82.28" from="295408461#0" to="160628085#1" type="motorbike"/>
    <trip id="ma_188" depart="82.72" from="695295268" to="-405113895" type="motorbike"/>
    <trip id="ma_189" depart="83.16" from="-828678814#0" to="695040552#1" type="motorbike"/>
    <trip id="ma_190" depart="83.60" from="-828678801#1" to="118673919#2" type="motorbike"/>
    <trip id="ma_191" depart="84.04" from="1280089201#0" to="673151142#4" type="motorbike"/>
    <trip id="ma_192" depart="84.48" from="828724820" to="295408468#0" type="motorbike"/>
    <trip id="ma_193" depart="84.92" from="676509076#1" to="695496039#0" type="motorbike"/>
    <trip id="ma_194" depart="85.36" from="694767769" to="-405113893#0" type="motorbike"/>
    <trip id="ma_195" depart="85.80" from="695496039#0" to="910359052#8" type="motorbike"/>
    <trip id="ma_196" depart="86.24" from="828724696" to="35950925#3" type="motorbike"/>
    <trip id="ma_197" depart="86.68" from="673151194" to="1280089222" type="motorbike"/>
    <trip id="ma_198" depart="87.12" from="295408452#6" to="118672607#0" type="motorbike"/>
    <trip id="ma_199" depart="87.56" from="295408452#6" to="35950897#15" type="motorbike"/>
    <trip id="ma_200" depart="88.00" from="-828724763#5" to="372220804#2" type="motorbike"/>
    <trip id="ma_201" depart="88.44" from="-828678788#1" to="828678769#0" type="motorbike"/>
    <trip id="ma_202" depart="88.88" from="-372464934#2" to="828724757#0" type="motorbike"/>
    <trip id="ma_203" depart="89.32" from="695496039#3" to="694598419#1-AddedOnRampEdge" type="motorbike"/>
    <trip id="ma_204" depart="89.76" from="1124338484" to="695510007#0" type="motorbike"/>
    <trip id="ma_205" depart="90.20" from="561667994#1" to="408161670#20" type="motorbike"/>
    <trip id="ma_206" depart="90.64" from="118570168#6" to="39368999#14" type="motorbike"/>
    <trip id="ma_207" depart="91.08" from="39368999#14" to="1280219250" type="motorbike"/>
    <trip id="ma_208" depart="91.52" from="695502613" to="964171425#4" type="motorbike"/>
    <trip id="ma_209" depart="91.96" from="-1445913016" to="828724683" type="motorbike"/>
    <trip id="ma_210" depart="92.40" from="-828724716" to="295408465#2-AddedOnRampEdge" type="motorbike"/>
    <trip id="ma_211" depart="92.84" from="118673921#1" to="693416427" type="motorbike"/>
    <trip id="ma_212" depart="93.28" from="-372464937#0" to="302751295#0" type="motorbike"/>
    <trip id="ma_213" depart="93.72" from="-372464931#3" to="696169688" type="motorbike"/>
    <trip id="ma_214" depart="94.16" from="35950864#30" to="1279915896#1" type="motorbike"/>
    <trip id="ma_215" depart="94.60" from="408161670#21" to="295408465#2-AddedOnRampEdge" type="motorbike"/>
    <trip id="ma_216" depart="95.04" from="118673892#0" to="295128790#3" type="motorbike"/>
    <trip id="ma_217" depart="95.48" from="1280219257#1" to="-295449620" type="motorbike"/>
    <trip id="ma_218" depart="95.92" from="828678790" to="-35950868#38" type="motorbike"/>
    <trip id="ma_219" depart="96.36" from="35950897#15" to="-118570149#1" type="motorbike"/>
    <trip id="ma_220" depart="96.80" from="372464937#5" to="695496039#3" type="motorbike"/>
    <trip id="ma_221" depart="97.24" from="-39368999#15" to="695295265#0" type="motorbike"/>
    <trip id="ma_222" depart="97.68" from="295408460#3" to="1280219260#0" type="motorbike"/>
    <trip id="ma_223" depart="98.12" from="673151142#2" to="295408462#12" type="motorbike"/>
    <trip id="ma_224" depart="98.56" from="693885802#0" to="695040552#1" type="motorbike"/>
    <trip id="ma_225" depart="99.00" from="118570174#1" to="695025562#0" type="motorbike"/>
    <trip id="ma_226" depart="99.44" from="-828678814#1" to="697200467#8" type="motorbike"/>
    <trip id="ma_227" depart="99.88" from="295408462#12" to="693416739#3" type="motorbike"/>
    <trip id="ma_228" depart="100.32" from="1210918873#0" to="697200467#10" type="motorbike"/>
    <trip id="ma_229" depart="100.76" from="295408459#1" to="35950897#0" type="motorbike"/>
    <trip id="ma_230" depart="101.20" from="1282340735" to="35950868#38" type="motorbike"/>
    <trip id="ma_231" depart="101.64" from="160628085#0" to="-35950882#7" type="motorbike"/>
    <trip id="ma_232" depart="102.08" from="39368999#1" to="-560454395" type="motorbike"/>
    <trip id="ma_233" depart="102.52" from="695490086#1" to="-39368999#14" type="motorbike"/>
    <trip id="ma_234" depart="102.96" from="295128790#10" to="828724757#1" type="motorbike"/>
    <trip id="ma_235" depart="103.40" from="834094454" to="295408477" type="motorbike"/>
    <trip id="ma_236" depart="103.84" from="1279915896#1" to="695033474#1" type="motorbike"/>
    <trip id="ma_237" depart="104.28" from="-1379125025" to="118570181#7" type="motorbike"/>
    <trip id="ma_238" depart="104.72" from="118673913#0" to="695025562#0" type="motorbike"/>
    <trip id="ma_239" depart="105.16" from="1355319663" to="35950959#4" type="motorbike"/>
    <trip id="ma_240" depart="105.60" from="295128790#10" to="35950897#0" type="motorbike"/>
    <trip id="ma_241" depart="106.04" from="676458405#0" to="-828724708" type="motorbike"/>
    <trip id="ma_242" depart="106.48" from="673151198#3" to="295128790#0" type="motorbike"/>
    <trip id="ma_243" depart="106.92" from="295449627#4" to="697200467#9" type="motorbike"/>
    <trip id="ma_244" depart="107.36" from="118555049#0" to="118672633#2" type="motorbike"/>
    <trip id="ma_245" depart="107.80" from="828724716" to="676451738#0" type="motorbike"/>
    <trip id="ma_246" depart="108.24" from="697200467#9" to="-676438752#3" type="motorbike"/>
    <trip id="ma_247" depart="108.68" from="35950883#7" to="695502614" type="motorbike"/>
    <trip id="ma_248" depart="109.12" from="295449622#2" to="779462187#1" type="motorbike"/>
    <trip id="ma_249" depart="109.56" from="256668722" to="828678861" type="motorbike"/>
    <trip id="ma_250" depart="110.00" from="39368999#10" to="295449627#3" type="motorbike"/>
    <trip id="ma_251" depart="110.44" from="-118573603#1" to="-828678814#3" type="motorbike"/>
    <trip id="ma_252" depart="110.88" from="372464935#5" to="695040105#3" type="motorbike"/>
    <trip id="ma_253" depart="111.32" from="561667993" to="118566872#11" type="motorbike"/>
    <trip id="ma_254" depart="111.76" from="696168834#0" to="-118673929#0" type="motorbike"/>
    <trip id="ma_255" depart="112.20" from="698067307#1" to="828678877" type="motorbike"/>
    <trip id="ma_256" depart="112.64" from="-35950864#23" to="1418093030" type="motorbike"/>
    <trip id="ma_257" depart="113.08" from="39368999#10" to="-295386152#10" type="motorbike"/>
    <trip id="ma_258" depart="113.52" from="-39368999#21" to="695295267#0" type="motorbike"/>
    <trip id="ma_259" depart="113.96" from="1280614504#1" to="828678742" type="motorbike"/>
    <trip id="ma_260" depart="114.40" from="964171425#6" to="-828678821#1" type="motorbike"/>
    <trip id="ma_261" depart="114.84" from="295408462#10" to="779462187#1" type="motorbike"/>
    <trip id="ma_262" depart="115.28" from="1280089201#1" to="-828724684#1" type="motorbike"/>
    <trip id="ma_263" depart="115.72" from="118555049#2" to="693885802#0" type="motorbike"/>
    <trip id="ma_264" depart="116.16" from="-118575969#1" to="563780767#1" type="motorbike"/>
    <trip id="ma_265" depart="116.60" from="695446623#0" to="1447078728#2" type="motorbike"/>
    <trip id="ma_266" depart="117.04" from="964171425#2" to="1034028675#0" type="motorbike"/>
    <trip id="ma_267" depart="117.48" from="1280219265" to="199383481-AddedOnRampEdge" type="motorbike"/>
    <trip id="ma_268" depart="117.92" from="35950925#0" to="-673151194" type="motorbike"/>
    <trip id="ma_269" depart="118.36" from="1280219257#2" to="695295268" type="motorbike"/>
    <trip id="ma_270" depart="118.80" from="295408464#0-AddedOffRampEdge" to="695490087#1" type="motorbike"/>
    <trip id="ma_271" depart="119.24" from="695295267#0" to="-828678912#4" type="motorbike"/>
    <trip id="ma_272" depart="119.68" from="35950959#4" to="1282340717#1" type="motorbike"/>
    <trip id="ma_273" depart="120.12" from="1426764507#2" to="-372220804#2" type="motorbike"/>
    <trip id="ma_274" depart="120.56" from="-35950868#5" to="302751282" type="motorbike"/>
    <trip id="ma_275" depart="121.00" from="-372220804#22" to="295128790#0" type="motorbike"/>
    <trip id="ma_276" depart="121.44" from="35950897#6" to="-828678814#1" type="motorbike"/>
    <trip id="ma_277" depart="121.88" from="295408463#1" to="295408452#7" type="motorbike"/>
    <trip id="ma_278" depart="122.32" from="1279259377#1" to="693885803#17" type="motorbike"/>
    <trip id="ma_279" depart="122.76" from="695496042#1" to="828724724#2" type="motorbike"/>
    <trip id="ma_280" depart="123.20" from="295408452#9" to="693885804#0" type="motorbike"/>
    <trip id="ma_281" depart="123.64" from="-698067307#0" to="295449627#0" type="motorbike"/>
    <trip id="ma_282" depart="124.08" from="561913438#2" to="695496042#0" type="motorbike"/>
    <trip id="ma_283" depart="124.52" from="302751282" to="302751282" type="motorbike"/>
    <trip id="ma_284" depart="124.96" from="698046188#1" to="199383481-AddedOnRampEdge" type="motorbike"/>
    <trip id="ma_285" depart="125.40" from="-828678749#0" to="1280219259#1" type="motorbike"/>
    <trip id="ma_286" depart="125.84" from="695025562#0" to="828724820" type="motorbike"/>
    <trip id="ma_287" depart="126.28" from="1034028675#0" to="695040552#1" type="motorbike"/>
    <trip id="ma_288" depart="126.72" from="1391330070#4" to="300949144#0" type="motorbike"/>
    <trip id="ma_289" depart="127.16" from="39368999#13" to="-828678745#1" type="motorbike"/>
    <trip id="ma_290" depart="127.60" from="964171425#5" to="1034028675#6" type="motorbike"/>
    <trip id="ma_291" depart="128.04" from="697200467#0" to="295408468#5" type="motorbike"/>
    <trip id="ma_292" depart="128.48" from="-1279259377#1" to="673151200#0" type="motorbike"/>
    <trip id="ma_293" depart="128.92" from="-39368999#1" to="-641397118" type="motorbike"/>
    <trip id="ma_294" depart="129.36" from="118555049#2" to="295408452#16-AddedOffRampEdge" type="motorbike"/>
    <trip id="ma_295" depart="129.80" from="-39368999#12" to="39368999#15" type="motorbike"/>
    <trip id="ma_296" depart="130.24" from="295408452#11" to="405412828#0" type="motorbike"/>
    <trip id="ma_297" depart="130.68" from="698936203#9" to="408161670#17" type="motorbike"/>
    <trip id="ma_298" depart="131.12" from="-828678773#1" to="-372464931#1" type="motorbike"/>
    <trip id="ma_299" depart="131.56" from="-118672606#8" to="828724780" type="motorbike"/>
    <trip id="ma_300" depart="132.00" from="405962811#3" to="1392384121#0" type="motorbike"/>
    <trip id="ma_301" depart="132.44" from="694583900#0-AddedOffRampEdge" to="295408461#5" type="motorbike"/>
    <trip id="ma_302" depart="132.88" from="694583900#0-AddedOffRampEdge" to="-295449622#1" type="motorbike"/>
    <trip id="ma_303" depart="133.32" from="1034028677#0" to="561971012" type="motorbike"/>
    <trip id="ma_304" depart="133.76" from="828724765" to="689583171#10" type="motorbike"/>
    <trip id="ma_305" depart="134.20" from="-562701507#1" to="35950897#13" type="motorbike"/>
    <trip id="ma_306" depart="134.64" from="295449622#2" to="-828678903" type="motorbike"/>
    <trip id="ma_307" depart="135.08" from="295408462#10" to="295408452#6" type="motorbike"/>
    <trip id="ma_308" depart="135.52" from="295408468#0" to="1280219259#0" type="motorbike"/>
    <trip id="ma_309" depart="135.96" from="697200467#7" to="295408452#1" type="motorbike"/>
    <trip id="ma_310" depart="136.40" from="695295265#0" to="-118570164#3" type="motorbike"/>
    <trip id="ma_311" depart="136.84" from="-676453139#0" to="302751284#0" type="motorbike"/>
    <trip id="ma_312" depart="137.28" from="1282340717#0" to="695496039#1" type="motorbike"/>
    <trip id="ma_313" depart="137.72" from="695496042#2" to="695496042#2" type="motorbike"/>
    <trip id="ma_314" depart="138.16" from="1279915895#0" to="673151142#2" type="motorbike"/>