<?xml version="1.0" encoding="UTF-8"?>

<!-- generated on 2026-03-16 23:17:33.062374 by Eclipse SUMO randomTrips.py v1.26.0
<configuration>
    <net-file value="F:\Newgeneration\FlowMindAI\sumo\danang\danang.net.xml"/>
    <additional-files value="F:\Newgeneration\FlowMindAI\sumo\danang\danang.vtypes.xml"/>
    <weights-prefix value="F:\Newgeneration\FlowMindAI\sumo\danang\danang.weights"/>
    <output-trip-file value="F:\Newgeneration\FlowMindAI\sumo\danang\danang.ca_.trips.xml"/>
    <prefix value="ca_"/>
    <trip-attributes value="type=&quot;car&quot;"/>
    <fringe-factor value="5"/>
    <random value="True"/>
    <remove-loops value="True"/>
    <period value="3.0"/>
</configuration>
-->

<routes xmlns:xsi="http://www.w3.org/2001/XMLSchema-instance" xsi:noNamespaceSchemaLocation="http://sumo.dlr.de/xsd/routes_file.xsd">
    <trip id="ca_0" depart="0.00" from="-372220804#4" to="694598419#1-AddedOnRampEdge" type="car"/>
    <trip id="ca_1" depart="3.00" from="697200467#4" to="408161670#18" type="car"/>
    <trip id="ca_2" depart="6.00" from="695025562#0" to="408161672#1" type="car"/>
    <trip id="ca_3" depart="9.00" from="828678862#1" to="828678869#1" type="car"/>
    <trip id="ca_4" depart="12.00" from="695496039#2" to="295408461#9" type="car"/>
    <trip id="ca_5" depart="15.00" from="295408460#3" to="302751282" type="car"/>
    <trip id="ca_6" depart="18.00" from="295408468#0" to="35950868#9" type="car"/>
    <trip id="ca_7" depart="21.00" from="694830397" to="697200467#10" type="car"/>
    <trip id="ca_8" depart="24.00" from="-1355319662" to="-828678798#1" type="car"/>
    <trip id="ca_9" depart="27.00" from="343417844#0" to="695504114#0" type="car"/>
    <trip id="ca_10" depart="30.00" from="-118570159#2" to="641466472" type="car"/>
    <trip id="ca_11" depart="33.00" from="695496042#0" to="1280219260#0" type="car"/>
    <trip id="ca_12" depart="36.00" from="693885804#0" to="-828724684#0" type="car"/>
    <trip id="ca_13" depart="39.00" from="-118673885" to="321069038#0" type="car"/>
    <trip id="ca_14" depart="42.00" from="1279915900#0" to="295408465#1" type="car"/>
    <trip id="ca_15" depart="45.00" from="295408459#1" to="695446625#1" type="car"/>
    <trip id="ca_16" depart="48.00" from="-35950942#2" to="-39368999#15" type="car"/>
    <trip id="ca_17" depart="51.00" from="562701502#2" to="295408461#4" type="car"/>
    <trip id="ca_18" depart="54.00" from="694598419#1-AddedOnRampEdge" to="-118673929#1" type="car"/>
    <trip id="ca_19" depart="57.00" from="118575966" to="-641127054" type="car"/>
    <trip id="ca_20" depart="60.00" from="-302751295#23" to="295408452#0" type="car"/>
    <trip id="ca_21" depart="63.00" from="695502611#0" to="828724764#1" type="car"/>
    <trip id="ca_22" depart="66.00" from="408161670#25" to="1467236399" type="car"/>
    <trip id="ca_23" depart="69.00" from="295408468#4" to="-561667994#0" type="car"/>
    <trip id="ca_24" depart="72.00" from="695510007#1" to="408161672#1" type="car"/>
    <trip id="ca_25" depart="75.00" from="641082247" to="562701507#1" type="car"/>
    <trip id="ca_26" depart="78.00" from="-118673937#2" to="695510007#0" type="car"/>
    <trip id="ca_27" depart="81.00" from="1280614485" to="-118575973#0" type="car"/>
    <trip id="ca_28" depart="84.00" from="1280219265" to="-828678797" type="car"/>
    <trip id="ca_29" depart="87.00" from="-35950883#0" to="1279915896#1" type="car"/>
    <trip id="ca_30" depart="90.00" from="372220804#33" to="695496039#3" type="car"/>
    <trip id="ca_31" depart="93.00" from="295408464#0-AddedOffRampEdge" to="1280219261" type="car"/>
    <trip id="ca_32" depart="96.00" from="693885804#0" to="295408461#1" type="car"/>
    <trip id="ca_33" depart="99.00" from="-118672607#4" to="-118672612#3" type="car"/>
    <trip id="ca_34" depart="102.00" from="-828678792" to="118570164#1" type="car"/>
    <trip id="ca_35" depart="105.00" from="828724820" to="828678814#6" type="car"/>
    <trip id="ca_36" depart="108.00" from="694594970#0" to="693885804#0" type="car"/>
    <trip id="ca_37" depart="111.00" from="694830397" to="828678910" type="car"/>
    <trip id="ca_38" depart="114.00" from="295408452#5" to="694601892" type="car"/>
    <trip id="ca_39" depart="117.00" from="895499825" to="39368999#3" type="car"/>
    <trip id="ca_40" depart="120.00" from="964171425#4" to="35950897#13" type="car"/>
    <trip id="ca_41" depart="123.00" from="-35950864#5" to="1282340752" type="car"/>
    <trip id="ca_42" depart="126.00" from="1280219258#0" to="673151142#3" type="car"/>
    <trip id="ca_43" depart="129.00" from="39354228#6" to="-35950864#29" type="car"/>
    <trip id="ca_44" depart="132.00" from="828678805" to="295128790#4" type="car"/>
    <trip id="ca_45" depart="135.00" from="295408452#9" to="-828678806" type="car"/>
    <trip id="ca_46" depart="138.00" from="35950925#6" to="302751282-AddedOnRampEdge" type="car"/>
    <trip id="ca_47" depart="141.00" from="300947936" to="693885803#27" type="car"/>
    <trip id="ca_48" depart="144.00" from="694583900#0" to="35950883#9" type="car"/>
    <trip id="ca_49" depart="147.00" from="295408462#1" to="-118688839#6" type="car"/>
    <trip id="ca_50" depart="150.00" from="-118673929#1" to="-828678810#4" type="car"/>
    <trip id="ca_51" depart="153.00" from="695504114#0" to="295408462#10" type="car"/>
    <trip id="ca_52" depart="156.00" from="1210918872#1" to="-561667996#1" type="car"/>
    <trip id="ca_53" depart="159.00" from="-35950868#21" to="697200463#1" type="car"/>
    <trip id="ca_54" depart="162.00" from="1034028677#1" to="295408452#8" type="car"/>
    <trip id="ca_55" depart="165.00" from="39368999#14" to="-39354228#4" type="car"/>
    <trip id="ca_56" depart="168.00" from="408161670#27" to="964171425#6" type="car"/>
    <trip id="ca_57" depart="171.00" from="-344658497#2" to="695510007#1" type="car"/>
    <trip id="ca_58" depart="174.00" from="295128790#0" to="35950925#4" type="car"/>
    <trip id="ca_59" depart="177.00" from="295128790#0" to="697200467#8" type="car"/>
    <trip id="ca_60" depart="180.00" from="295408452#6" to="-302739242#0" type="car"/>
    <trip id="ca_61" depart="183.00" from="-405962815#1" to="695504114#0" type="car"/>
    <trip id="ca_62" depart="186.00" from="408161670#18" to="118672607#5" type="car"/>
    <trip id="ca_63" depart="189.00" from="405962815#0" to="-118575970#1" type="car"/>
    <trip id="ca_64" depart="192.00" from="35950897#6" to="295449625#1" type="car"/>
    <trip id="ca_65" depart="195.00" from="910359052#7" to="1280089201#1" type="car"/>
    <trip id="ca_66" depart="198.00" from="695030266" to="-561913438#1" type="car"/>
    <trip id="ca_67" depart="201.00" from="295128790#0" to="295408452#16-AddedOffRampEdge" type="car"/>
    <trip id="ca_68" depart="204.00" from="698046188#1" to="302751282-AddedOnRampEdge" type="car"/>
    <trip id="ca_69" depart="207.00" from="1280089222" to="695040552#1" type="car"/>
    <trip id="ca_70" depart="210.00" from="-344692547#3" to="964171425#6" type="car"/>
    <trip id="ca_71" depart="213.00" from="295408462#12" to="295128790#0" type="car"/>
    <trip id="ca_72" depart="216.00" from="695295265#0" to="302751282-AddedOnRampEdge" type="car"/>
    <trip id="ca_73" depart="219.00" from="295408464#0-AddedOffRampEdge" to="-118555049#15" type="car"/>
    <trip id="ca_74" depart="222.00" from="302751284#0" to="160628085#1" type="car"/>
    <trip id="ca_75" depart="225.00" from="695030266" to="1391330070#9" type="car"/>
    <trip id="ca_76" depart="228.00" from="295408452#8" to="964171425#4" type="car"/>
    <trip id="ca_77" depart="231.00" from="676438752#1" to="693885804#0" type="car"/>
    <trip id="ca_78" depart="234.00" from="693416427" to="295408452#9" type="car"/>
    <trip id="ca_79" depart="237.00" from="-828678816#0" to="321069052" type="car"/>
    <trip id="ca_80" depart="240.00" from="1391330069#0" to="-372466116#0" type="car"/>
    <trip id="ca_81" depart="243.00" from="1280089201#0" to="-35950882#2" type="car"/>
    <trip id="ca_82" depart="246.00" from="295408460#3" to="295408452#16-AddedOffRampEdge" type="car"/>
    <trip id="ca_83" depart="249.00" from="1280219259#0" to="696169688" type="car"/>
    <trip id="ca_84" depart="252.00" from="39368999#11" to="910359052#5" type="car"/>
    <trip id="ca_85" depart="255.00" from="689583171#7" to="295128790#0" type="car"/>
    <trip id="ca_86" depart="258.00" from="295408468#0" to="-295386152#10" type="car"/>
    <trip id="ca_87" depart="261.00" from="295408463#1" to="295128790#4" type="car"/>
    <trip id="ca_88" depart="264.00" from="160628085#2" to="1034027336#2" type="car"/>
    <trip id="ca_89" depart="267.00" from="694598419#0" to="1391330070#0" type="car"/>
    <trip id="ca_90" depart="270.00" from="-39354228#4" to="695502613" type="car"/>
    <trip id="ca_91" depart="273.00" from="408161670#13" to="-641109023#1" type="car"/>
    <trip id="ca_92" depart="276.00" from="697200467#11" to="676714129" type="car"/>
    <trip id="ca_93" depart="279.00" from="-118566872#3" to="295408452#0" type="car"/>
    <trip id="ca_94" depart="282.00" from="694583900#0" to="695295268" type="car"/>
    <trip id="ca_95" depart="285.00" from="694772625#0" to="695504114#0" type="car"/>
    <trip id="ca_96" depart="288.00" from="695510007#1" to="-295449629#1" type="car"/>
    <trip id="ca_97" depart="291.00" from="372464934#1" to="-673151200#0" type="car"/>
    <trip id="ca_98" depart="294.00" from="295408468#0" to="641397122#4" type="car"/>
    <trip id="ca_99" depart="297.00" from="695490086#1" to="35950897#10" type="car"/>
    <trip id="ca_100" depart="300.00" from="-39368999#5" to="694598419#0" type="car"/>
    <trip id="ca_101" depart="303.00" from="1282340752" to="-118688839#0" type="car"/>
    <trip id="ca_102" depart="306.00" from="295408452#16" to="695496039#3" type="car"/>
    <trip id="ca_103" depart="309.00" from="694598419#1-AddedOnRampEdge" to="695504114#4" type="car"/>
    <trip id="ca_104" depart="312.00" from="828678911" to="676489596#2" type="car"/>
    <trip id="ca_105" depart="315.00" from="1034028675#0" to="295408452#7" type="car"/>
    <trip id="ca_106" depart="318.00" from="372466117#2" to="694598419#0" type="car"/>
    <trip id="ca_107" depart="321.00" from="295408459#0" to="302751282-AddedOnRampEdge" type="car"/>
    <trip id="ca_108" depart="324.00" from="693885804#0" to="302751284#0" type="car"/>
    <trip id="ca_109" depart="327.00" from="695502614" to="199383481-AddedOnRampEdge" type="car"/>
    <trip id="ca_110" depart="330.00" from="695496039#2" to="295408459#5" type="car"/>
    <trip id="ca_111" depart="333.00" from="-405113896#0" to="694598419#0" type="car"/>
    <trip id="ca_112" depart="336.00" from="408161670#24" to="910359052#3" type="car"/>
    <trip id="ca_113" depart="339.00" from="1280219258#0" to="695446623#1" type="car"/>
    <trip id="ca_114" depart="342.00" from="-118566872#0" to="-560329293#0" type="car"/>
    <trip id="ca_115" depart="345.00" from="694830396" to="-561913438#2" type="car"/>
    <trip id="ca_116" depart="348.00" from="-828678770" to="641397122#1" type="car"/>
    <trip id="ca_117" depart="351.00" from="295408462#8" to="1034028676#2" type="car"/>
    <trip id="ca_118" depart="354.00" from="698936203#3" to="1418093030" type="car"/>
    <trip id="ca_119" depart="357.00" from="118570163#0" to="695502611#0" type="car"/>
    <trip id="ca_120" depart="360.00" from="295408463#0" to="1391330070#6" type="car"/>
    <trip id="ca_121" depart="363.00" from="-1446429434#1" to="694775628#0" type="car"/>
    <trip id="ca_122" depart="366.00" from="1280089201#0" to="697200467#8" type="car"/>
    <trip id="ca_123" depart="369.00" from="35950897#10" to="-828678830" type="car"/>
    <trip id="ca_124" depart="372.00" from="295408452#7" to="-35950868#16" type="car"/>
    <trip id="ca_125" depart="375.00" from="295408461#4" to="695502611#1" type="car"/>
    <trip id="ca_126" depart="378.00" from="1210918872#1" to="-828724794" type="car"/>
    <trip id="ca_127" depart="381.00" from="562701505" to="-302751295#25" type="car"/>
    <trip id="ca_128" depart="384.00" from="1279915898#9" to="1280089201#1" type="car"/>
    <trip id="ca_129" depart="387.00" from="295408452#1" to="295449625#1" type="car"/>
    <trip id="ca_130" depart="390.00" from="-689583178#6" to="1280219261" type="car"/>
    <trip id="ca_131" depart="393.00" from="35950897#10" to="-35950868#10" type="car"/>
    <trip id="ca_132" depart="396.00" from="-676458405#0" to="1282340718" type="car"/>
    <trip id="ca_133" depart="399.00" from="35950897#13" to="1034027336#1" type="car"/>
    <trip id="ca_134" depart="402.00" from="697200467#1" to="1282340735" type="car"/>
    <trip id="ca_135" depart="405.00" from="118570181#3" to="295408452#7" type="car"/>
    <trip id="ca_136" depart="408.00" from="295408452#6" to="295408452#5" type="car"/>
    <trip id="ca_137" depart="411.00" from="118570181#6" to="39368999#2" type="car"/>
    <trip id="ca_138" depart="414.00" from="698936203#3" to="-905050168" type="car"/>
    <trip id="ca_139" depart="417.00" from="694583900#0-AddedOffRampEdge" to="1280219261" type="car"/>
    <trip id="ca_140" depart="420.00" from="1280219257#0" to="694715299#1" type="car"/>
    <trip id="ca_141" depart="423.00" from="372466114#3" to="35950868#1" type="car"/>
    <trip id="ca_142" depart="426.00" from="35950868#14" to="828678821#1" type="car"/>
    <trip id="ca_143" depart="429.00" from="302751295#5" to="-828724692" type="car"/>
    <trip id="ca_144" depart="432.00" from="1280219265" to="1280089201#2" type="car"/>
    <trip id="ca_145" depart="435.00" from="408161670#18" to="-828678858" type="car"/>
    <trip id="ca_146" depart="438.00" from="697200467#10" to="1282340752" type="car"/>
    <trip id="ca_147" depart="441.00" from="35950868#1" to="1034028676#1" type="car"/>
    <trip id="ca_148" depart="444.00" from="695040105#5" to="302751282-AddedOnRampEdge" type="car"/>
    <trip id="ca_149" depart="447.00" from="694715298" to="1282340717#0" type="car"/>
    <trip id="ca_150" depart="450.00" from="1280089222" to="694598419#0" type="car"/>
    <trip id="ca_151" depart="453.00" from="-642098832#0" to="-828678745#1" type="car"/>
    <trip id="ca_152" depart="456.00" from="295408461#1" to="828724726#0" type="car"/>
    <trip id="ca_153" depart="459.00" from="828724762" to="1034028677#0" type="car"/>
    <trip id="ca_154" depart="462.00" from="-642354268#3" to="160628085#1" type="car"/>
    <trip id="ca_155" depart="465.00" from="694715298" to="895478110" type="car"/>
    <trip id="ca_156" depart="468.00" from="39368999#14" to="1280219259#0" type="car"/>
    <trip id="ca_157" depart="471.00" from="693416739#0" to="693416739#3" type="car"/>
    <trip id="ca_158" depart="474.00" from="1279915919" to="695025562#0" type="car"/>
    <trip id="ca_159" depart="477.00" from="-694715297" to="1391330070#0" type="car"/>
    <trip id="ca_160" depart="480.00" from="295128790#0" to="118673921#1" type="car"/>
    <trip id="ca_161" depart="483.00" from="35950897#0" to="695510007#1" type="car"/>
    <trip id="ca_162" depart="486.00" from="698936203#4" to="694601892" type="car"/>
    <trip id="ca_163" depart="489.00" from="-828678869#0" to="1282340735" type="car"/>
    <trip id="ca_164" depart="492.00" from="1280219266" to="695030266" type="car"/>
    <trip id="ca_165" depart="495.00" from="295408452#7" to="-372220804#16" type="car"/>
    <trip id="ca_166" depart="498.00" from="695490087#1" to="39368999#9" type="car"/>
    <trip id="ca_167" depart="501.00" from="694583900#0-AddedOffRampEdge" to="35950868#9" type="car"/>
    <trip id="ca_168" depart="504.00" from="-560329293#1" to="1280219261" type="car"/>
    <trip id="ca_169" depart="507.00" from="697200467#10" to="695295267#2" type="car"/>
    <trip id="ca_170" depart="510.00" from="295408468#4" to="295408452#9" type="car"/>
    <trip id="ca_171" depart="513.00" from="1280219261" to="697200467#11" type="car"/>
    <trip id="ca_172" depart="516.00" from="295408452#16-AddedOffRampEdge" to="-641457630" type="car"/>
    <trip id="ca_173" depart="519.00" from="295408452#11" to="-372220804#2" type="car"/>
    <trip id="ca_174" depart="522.00" from="1391330070#6" to="-1279915898#8" type="car"/>
    <trip id="ca_175" depart="525.00" from="1280219257#0" to="118566872#4" type="car"/>
    <trip id="ca_176" depart="528.00" from="694775628#2" to="295408461#5" type="car"/>
    <trip id="ca_177" depart="531.00" from="1279915900#0" to="295408462#10" type="car"/>
    <trip id="ca_178" depart="534.00" from="694830397" to="118672606#7" type="car"/>
    <trip id="ca_179" depart="537.00" from="694772625#0" to="693416739#3" type="car"/>
    <trip id="ca_180" depart="540.00" from="697200467#8" to="118575972#0" type="car"/>
    <trip id="ca_181" depart="543.00" from="1280219266" to="295408461#9" type="car"/>
    <trip id="ca_182" depart="546.00" from="1279915921" to="408161670#27" type="car"/>
    <trip id="ca_183" depart="549.00" from="689583171#12" to="295408459#5" type="car"/>
    <trip id="ca_184" depart="552.00" from="-689583176#6" to="1282340737" type="car"/>
    <trip id="ca_185" depart="555.00" from="-118672607#0" to="39368999#2" type="car"/>
    <trip id="ca_186" depart="558.00" from="408161670#24" to="-372589137#0" type="car"/>
    <trip id="ca_187" depart="561.00" from="-697822848#0" to="-828724768#2" type="car"/>
    <trip id="ca_188" depart="564.00" from="1280219260#0" to="118672444#2" type="car"/>
    <trip id="ca_189" depart="567.00" from="895447147" to="-1467236399" type="car"/>
    <trip id="ca_190" depart="570.00" from="295449629#0" to="295408468#4" type="car"/>
    <trip id="ca_191" depart="573.00" from="118570159#8" to="35950883#7" type="car"/>
    <trip id="ca_192" depart="576.00" from="676453138#2" to="697200467#1" type="car"/>
    <trip id="ca_193" depart="579.00" from="343236557#1" to="695504114#4" type="car"/>
    <trip id="ca_194" depart="582.00" from="694598419#0" to="1282340717#1" type="car"/>
    <trip id="ca_195" depart="585.00" from="1280089201#1" to="910359052#7" type="car"/>
    <trip id="ca_196" depart="588.00" from="-302751295#11" to="295408452#9" type="car"/>
    <trip id="ca_197" depart="591.00" from="910359052#0" to="-828724699#2" type="car"/>
    <trip id="ca_198" depart="594.00" from="295408452#6" to="560329311" type="car"/>
    <trip id="ca_199" depart="597.00" from="295408452#9" to="295408462#0" type="car"/>
    <trip id="ca_200" depart="600.00" from="694600787" to="689583176#2" type="car"/>
    <trip id="ca_201" depart="603.00" from="693885802#0" to="408161670#24" type="car"/>
    <trip id="ca_202" depart="606.00" from="295408459#1" to="828724820" type="car"/>
    <trip id="ca_203" depart="609.00" from="694601892" to="562701502#3" type="car"/>
    <trip id="ca_204" depart="612.00" from="1280614504#0" to="828724821#0" type="car"/>
    <trip id="ca_205" depart="615.00" from="302751295#3" to="295394152#0" type="car"/>
    <trip id="ca_206" depart="618.00" from="-118567489#2" to="199383481-AddedOnRampEdge" type="car"/>
    <trip id="ca_207" depart="621.00" from="689583171#2" to="696168834#1" type="car"/>
    <trip id="ca_208" depart="624.00" from="-641466470" to="695040552#0" type="car"/>
    <trip id="ca_209" depart="627.00" from="828724762" to="828678778" type="car"/>
    <trip id="ca_210" depart="630.00" from="-295386152#8" to="295449627#4" type="car"/>
    <trip id="ca_211" depart="633.00" from="-35950864#13" to="689583171#12" type="car"/>
    <trip id="ca_212" depart="636.00" from="1034028678" to="695504114#4" type="car"/>
    <trip id="ca_213" depart="639.00" from="1282340713#1" to="676453140#0" type="car"/>
    <trip id="ca_214" depart="642.00" from="676461674" to="1282340737" type="car"/>
    <trip id="ca_215" depart="645.00" from="1280219266" to="295408461#9" type="car"/>
    <trip id="ca_216" depart="648.00" from="964171425#0" to="695295268" type="car"/>
    <trip id="ca_217" depart="651.00" from="695504114#1" to="910359052#9" type="car"/>
    <trip id="ca_218" depart="654.00" from="693885802#0" to="295408468#0" type="car"/>
    <trip id="ca_219" depart="657.00" from="1280614485" to="295408461#1" type="car"/>
    <trip id="ca_220" depart="660.00" from="694830395#0" to="1280089222" type="car"/>
    <trip id="ca_221" depart="663.00" from="694830395#0" to="408161672#1" type="car"/>
    <trip id="ca_222" depart="666.00" from="295408452#16-AddedOffRampEdge" to="910359052#9" type="car"/>
    <trip id="ca_223" depart="669.00" from="1282340718" to="372466114#1" type="car"/>
    <trip id="ca_224" depart="672.00" from="695502614" to="302751284#3" type="car"/>
    <trip id="ca_225" depart="675.00" from="695504114#1" to="408161670#20" type="car"/>
    <trip id="ca_226" depart="678.00" from="295408461#1" to="295408462#10" type="car"/>
    <trip id="ca_227" depart="681.00" from="641397122#1" to="-643237806#0" type="car"/>
    <trip id="ca_228" depart="684.00" from="1446454670" to="828724747#1" type="car"/>
    <trip id="ca_229" depart="687.00" from="295408463#1" to="1034028676#1" type="car"/>
    <trip id="ca_230" depart="690.00" from="160628085#1" to="-828724744" type="car"/>
    <trip id="ca_231" depart="693.00" from="302751284#0" to="964171425#6" type="car"/>
    <trip id="ca_232" depart="696.00" from="695040552#1" to="695502611#0" type="car"/>
    <trip id="ca_233" depart="699.00" from="35950883#9" to="1418093030" type="car"/>
    <trip id="ca_234" depart="702.00" from="694583900#0-AddedOffRampEdge" to="695295265#0" type="car"/>
    <trip id="ca_235" depart="705.00" from="694775628#0" to="35950864#23" type="car"/>
    <trip id="ca_236" depart="708.00" from="295408452#6" to="160628085#1" type="car"/>
    <trip id="ca_237" depart="711.00" from="1280089222" to="-676458405#3" type="car"/>
    <trip id="ca_238" depart="714.00" from="39368999#2" to="199383481-AddedOnRampEdge" type="car"/>
    <trip id="ca_239" depart="717.00" from="694600787" to="1280089201#2" type="car"/>
    <trip id="ca_240" depart="720.00" from="1280089222" to="295408452#8" type="car"/>
    <trip id="ca_241" depart="723.00" from="828724758#0" to="408161670#24" type="car"/>
    <trip id="ca_242" depart="726.00" from="118673921#4" to="695295267#0" type="car"/>
    <trip id="ca_243" depart="729.00" from="35950897#0" to="295408452#1" type="car"/>
    <trip id="ca_244" depart="732.00" from="295408452#8" to="1280614485" type="car"/>
    <trip id="ca_245" depart="735.00" from="-118673913#6" to="695490086#1" type="car"/>
    <trip id="ca_246" depart="738.00" from="-828724718" to="295408452#16-AddedOffRampEdge" type="car"/>
    <trip id="ca_247" depart="741.00" from="372464937#0" to="693885802#2" type="car"/>
    <trip id="ca_248" depart="744.00" from="295408461#1" to="-39368999#1" type="car"/>
    <trip id="ca_249" depart="747.00" from="302739242#0" to="1282340739" type="car"/>
    <trip id="ca_250" depart="750.00" from="-828724751" to="1279915896#0" type="car"/>
    <trip id="ca_251" depart="753.00" from="408161670#24" to="1034028675#6" type="car"/>
    <trip id="ca_252" depart="756.00" from="35950864#8" to="697200467#4" type="car"/>
    <trip id="ca_253" depart="759.00" from="693885803#1" to="-118566872#16" type="car"/>
    <trip id="ca_254" depart="762.00" from="300949143" to="-35950868#19" type="car"/>
    <trip id="ca_255" depart="765.00" from="-35950883#3" to="1280219259#0" type="car"/>
    <trip id="ca_256" depart="768.00" from="295408462#10" to="35950925#6" type="car"/>
    <trip id="ca_257" depart="771.00" from="295408452#0" to="-118674615#4" type="car"/>
    <trip id="ca_258" depart="774.00" from="408161670#24" to="295408461#5" type="car"/>
    <trip id="ca_259" depart="777.00" from="-39368999#13" to="295408461#1" type="car"/>
    <trip id="ca_260" depart="780.00" from="694583900#0" to="1280089201#1" type="car"/>
    <trip id="ca_261" depart="783.00" from="295408452#8" to="828724754#2" type="car"/>
    <trip id="ca_262" depart="786.00" from="695510007#0" to="118570175" type="car"/>
    <trip id="ca_263" depart="789.00" from="-828724779#1" to="1280614505#1" type="car"/>
    <trip id="ca_264" depart="792.00" from="693885803#17" to="642086911" type="car"/>
    <trip id="ca_265" depart="795.00" from="964171425#5" to="295408452#8" type="car"/>
    <trip id="ca_266" depart="798.00" from="695490087#1" to="-694590820" type="car"/>
    <trip id="ca_267" depart="801.00" from="895447147" to="693885802#2" type="car"/>
    <trip id="ca_268" depart="804.00" from="295449627#4" to="118570175" type="car"/>
    <trip id="ca_269" depart="807.00" from="1279915896#0" to="1282340736" type="car"/>
    <trip id="ca_270" depart="810.00" from="405962815#0" to="408161670#13" type="car"/>
    <trip id="ca_271" depart="813.00" from="910359052#3" to="694775628#0" type="car"/>
    <trip id="ca_272" depart="816.00" from="964171425#0" to="828678775" type="car"/>
    <trip id="ca_273" depart="819.00" from="295408461#0" to="-1282340714" type="car"/>
    <trip id="ca_274" depart="822.00" from="1210918872#1" to="118555049#15" type="car"/>
    <trip id="ca_275" depart="825.00" from="1282340731" to="695496042#0" type="car"/>
    <trip id="ca_276" depart="828.00" from="-676465939#3" to="696169688" type="car"/>
    <trip id="ca_277" depart="831.00" from="-39368999#0" to="295408461#4" type="car"/>
    <trip id="ca_278" depart="834.00" from="694774375#0" to="828724797#0" type="car"/>
    <trip id="ca_279" depart="837.00" from="-39368999#2" to="-895475668" type="car"/>
    <trip id="ca_280" depart="840.00" from="295408452#16-AddedOffRampEdge" to="35950868#14" type="car"/>
    <trip id="ca_281" depart="843.00" from="295408452#1" to="-302739242#2" type="car"/>
    <trip id="ca_282" depart="846.00" from="-372466116#1" to="693885803#27" type="car"/>
    <trip id="ca_283" depart="849.00" from="695025562#0" to="302751282-AddedOnRampEdge" type="car"/>
    <trip id="ca_284" depart="852.00" from="1034028676#0" to="693885802#0" type="car"/>
    <trip id="ca_285" depart="855.00" from="695040552#1" to="694715298" type="car"/>
    <trip id="ca_286" depart="858.00" from="39354228#7" to="199383481" type="car"/>
    <trip id="ca_287" depart="861.00" from="1034028676#1" to="695040552#0" type="car"/>
    <trip id="ca_288" depart="864.00" from="35950897#6" to="779462187#1" type="car"/>
    <trip id="ca_289" depart="867.00" from="1279259377#0" to="695504114#4" type="car"/>
    <trip id="ca_290" depart="870.00" from="-828724820" to="35950959#1" type="car"/>
    <trip id="ca_291" depart="873.00" from="295128790#0" to="118570181#8" type="car"/>
    <trip id="ca_292" depart="876.00" from="-696755556#0" to="-118673929#0" type="car"/>
    <trip id="ca_293" depart="879.00" from="1034028677#0" to="694594970#0" type="car"/>
    <trip id="ca_294" depart="882.00" from="295408461#4" to="295408463#1" type="car"/>
    <trip id="ca_295" depart="885.00" from="118674615#3" to="35950897#0" type="car"/>
    <trip id="ca_296" depart="888.00" from="828724764#1" to="321069035#1" type="car"/>
    <trip id="ca_297" depart="891.00" from="1280089201#1" to="1280219259#0" type="car"/>
    <trip id="ca_298" depart="894.00" from="295408459#7" to="695502613" type="car"/>
    <trip id="ca_299" depart="897.00" from="344658497#2" to="1282340716" type="car"/>
    <trip id="ca_300" depart="900.00" from="-302751287" to="828724764#0" type="car"/>
    <trip id="ca_301" depart="903.00" from="-39368999#5" to="295408462#10" type="car"/>
    <trip id="ca_302" depart="906.00" from="295408462#8" to="673151142#4" type="car"/>
    <trip id="ca_303" depart="909.00" from="372220804#16" to="35950868#27" type="car"/>
    <trip id="ca_304" depart="912.00" from="828678810#4" to="-694715297" type="car"/>
    <trip id="ca_305" depart="915.00" from="695040105#3" to="561426521" type="car"/>
    <trip id="ca_306" depart="918.00" from="694830396" to="694830395#0" type="car"/>
    <trip id="ca_307" depart="921.00" from="-35950864#20" to="408161672#0" type="car"/>
    <trip id="ca_308" depart="924.00" from="695025560#0" to="1392384121#0" type="car"/>
    <trip id="ca_309" depart="927.00" from="696168834#0" to="302751282" type="car"/>
    <trip id="ca_310" depart="930.00" from="343417844#0" to="694598419#1-AddedOnRampEdge" type="car"/>
    <trip id="ca_311" depart="933.00" from="295449627#0" to="1034028677#1" type="car"/>
    <trip id="ca_312" depart="936.00" from="694600787" to="693885802#2" type="car"/>
    <trip id="ca_313" depart="939.00" from="698936203#8" to="1280614485" type="car"/>
    <trip id="ca_314" depart="942.00" from="828678791" to="-118570159#8" type="car"/>
    <trip id="ca_315" depart="945.00" from="1279915896#0" to="-118570164#1" type="car"/>
    <trip id="ca_316" depart="948.00" from="372589135#1" to="695040105#3" type="car"/>
    <trip id="ca_317" depart="951.00" from="1282340736" to="295408465#2-AddedOnRampEdge" type="car"/>
    <trip id="ca_318" depart="954.00" from="694830397" to="689583171#7" type="car"/>
    <trip id="ca_319" depart="957.00" from="1280614485" to="-39368999#13" type="car"/>
    <trip id="ca_320" depart="960.00" from="-1387292391" to="693885802#2" type="car"/>
    <trip id="ca_321" depart="963.00" from="295408459#1" to="-39368999#12" type="car"/>
    <trip id="ca_322" depart="966.00" from="295408468#0" to="1280089201#2" type="car"/>
    <trip id="ca_323" depart="969.00" from="694202154#0" to="408161670#0" type="car"/>
    <trip id="ca_324" depart="972.00" from="1391330069#0" to="-39368999#20" type="car"/>
    <trip id="ca_325" depart="975.00" from="697200467#0" to="118575972#0" type="car"/>
    <trip id="ca_326" depart="978.00" from="1282340737" to="697200467#11" type="car"/>
    <trip id="ca_327" depart="981.00" from="295408461#0" to="1280219257#0" type="car"/>
    <trip id="ca_328" depart="984.00" from="-302751295#1" to="35950897#13" type="car"/>
    <trip id="ca_329" depart="987.00" from="693885804#0" to="302751295#33" type="car"/>
    <trip id="ca_330" depart="990.00" from="694598419#0" to="1210918873#1" type="car"/>
    <trip id="ca_331" depart="993.00" from="295408463#1" to="408161670#27" type="car"/>