<?xml version="1.0" encoding="UTF-8"?>

<!-- generated on 2026-03-24 14:37:02.321802 by Eclipse SUMO randomTrips.py v1_26_0+0000-fa7df22d7f1
<configuration>
    <net-file value="D:\WeSaveTime-ASEAN\sumo\danang\danang.net.xml"/>
    <additional-files value="D:\WeSaveTime-ASEAN\sumo\danang\danang.vtypes.xml"/>
    <weights-prefix value="D:\WeSaveTime-ASEAN\sumo\danang\danang.weights"/>
    <output-trip-file value="D:\WeSaveTime-ASEAN\sumo\danang\danang.bs_.trips.xml"/>
    <prefix value="bs_"/>
    <trip-attributes value="type=&quot;bus&quot;"/>
    <fringe-factor value="10"/>
    <random value="True"/>
    <remove-loops value="True"/>
    <end value="600.0"/>
    <period value="5.0"/>
</configuration>
-->

<routes xmlns:xsi="http://www.w3.org/2001/XMLSchema-instance" xsi:noNamespaceSchemaLocation="http://sumo.dlr.de/xsd/routes_file.xsd">
    <trip id="bs_0" depart="0.00" from="-828724699#1" to="695496039#1" type="bus"/>
    <trip id="bs_1" depart="5.00" from="695030266" to="693416739#0" type="bus"/>
    <trip id="bs_2" depart="10.00" from="696991611#2" to="-118570151#1" type="bus"/>
    <trip id="bs_3" depart="15.00" from="295449625#0" to="695446625#0" type="bus"/>
    <trip id="bs_4" depart="20.00" from="-35950883#3" to="35950897#1" type="bus"/>
    <trip id="bs_5" depart="25.00" from="302751295#2" to="118566873#2" type="bus"/>
    <trip id="bs_6" depart="30.00" from="295408452#16" to="694598419#1-AddedOnRampEdge" type="bus"/>
    <trip id="bs_7" depart="35.00" from="-828724754#1" to="828724777#0" type="bus"/>
    <trip id="bs_8" depart="40.00" from="697200467#7" to="695504114#4" type="bus"/>
    <trip id="bs_9" depart="45.00" from="35950897#0" to="910359052#7" type="bus"/>
    <trip id="bs_10" depart="50.00" from="-828724797#1" to="-828678801#1" type="bus"/>
    <trip id="bs_11" depart="55.00" from="-118672612#0" to="39368999#4" type="bus"/>
    <trip id="bs_12" depart="60.00" from="408161670#18" to="-828724700#1" type="bus"/>
    <trip id="bs_13" depart="65.00" from="302751295#33" to="-343236557#0" type="bus"/>
    <trip id="bs_14" depart="70.00" from="828724700#0" to="695025562#0" type="bus"/>
    <trip id="bs_15" depart="75.00" from="695025560#0" to="-561971012" type="bus"/>
    <trip id="bs_16" depart="80.00" from="1282340737" to="910359052#3" type="bus"/>
    <trip id="bs_17" depart="85.00" from="828724752#0" to="302751282-AddedOnRampEdge" type="bus"/>
    <trip id="bs_18" depart="90.00" from="1280219260#1" to="695496042#1" type="bus"/>
    <trip id="bs_19" depart="95.00" from="408161670#28" to="-295449622#1" type="bus"/>
    <trip id="bs_20" depart="100.00" from="695295267#0" to="372466117#1" type="bus"/>
    <trip id="bs_21" depart="105.00" from="118567494" to="641093018" type="bus"/>
    <trip id="bs_22" depart="110.00" from="910359052#8" to="910359052#8" type="bus"/>
    <trip id="bs_23" depart="115.00" from="-302751295#2" to="-828678808" type="bus"/>
    <trip id="bs_24" depart="120.00" from="-302751295#2" to="35950882#11" type="bus"/>
    <trip id="bs_25" depart="125.00" from="1279915898#2" to="695496039#2" type="bus"/>
    <trip id="bs_26" depart="130.00" from="39368999#6" to="-39368999#21" type="bus"/>
    <trip id="bs_27" depart="135.00" from="-695090346#0" to="1280614505#1" type="bus"/>
    <trip id="bs_28" depart="140.00" from="828678769#0" to="828678912#1" type="bus"/>
    <trip id="bs_29" depart="145.00" from="-828678789" to="35950864#6" type="bus"/>
    <trip id="bs_30" depart="150.00" from="642356081#0" to="828678784" type="bus"/>
    <trip id="bs_31" depart="155.00" from="828678786" to="-118570172#2" type="bus"/>
    <trip id="bs_32" depart="160.00" from="694830396" to="295128790#10" type="bus"/>
    <trip id="bs_33" depart="165.00" from="-39368999#21" to="-689583178#4" type="bus"/>
    <trip id="bs_34" depart="170.00" from="295408462#8" to="-39368999#20" type="bus"/>
    <trip id="bs_35" depart="175.00" from="-676453142#1" to="295449625#1" type="bus"/>
    <trip id="bs_36" depart="180.00" from="-828678862#0" to="408161670#0" type="bus"/>
    <trip id="bs_37" depart="185.00" from="693330103#0" to="39368999#11" type="bus"/>
    <trip id="bs_38" depart="190.00" from="828724810#0" to="295408461#10" type="bus"/>
    <trip id="bs_39" depart="195.00" from="1446454670" to="1446429434#2" type="bus"/>
    <trip id="bs_40" depart="200.00" from="35950868#22" to="-35950868#6" type="bus"/>
    <trip id="bs_41" depart="205.00" from="694775628#2" to="695025562#0" type="bus"/>
    <trip id="bs_42" depart="210.00" from="1282340717#0" to="695510007#0" type="bus"/>
    <trip id="bs_43" depart="215.00" from="295408459#4" to="695510007#1" type="bus"/>
    <trip id="bs_44" depart="220.00" from="408161670#20" to="641093018" type="bus"/>
    <trip id="bs_45" depart="225.00" from="828724757#0" to="295449627#4" type="bus"/>
    <trip id="bs_46" depart="230.00" from="560329311" to="-35950864#17" type="bus"/>
    <trip id="bs_47" depart="235.00" from="828724726#0" to="695496042#2" type="bus"/>
    <trip id="bs_48" depart="240.00" from="295408463#0" to="408161670#25" type="bus"/>
    <trip id="bs_49" depart="245.00" from="689583176#5" to="695504114#0" type="bus"/>
    <trip id="bs_50" depart="250.00" from="118570149#5" to="693885802#0" type="bus"/>
    <trip id="bs_51" depart="255.00" from="160628085#1" to="-676712671" type="bus"/>
    <trip id="bs_52" depart="260.00" from="-372466114#2" to="-895487327" type="bus"/>
    <trip id="bs_53" depart="265.00" from="1355319663" to="295408461#4" type="bus"/>
    <trip id="bs_54" depart="270.00" from="-39368999#9" to="-35950868#14" type="bus"/>
    <trip id="bs_55" depart="275.00" from="321069043#0" to="964171425#6" type="bus"/>
    <trip id="bs_56" depart="280.00" from="695026460#0" to="695025560#0" type="bus"/>
    <trip id="bs_57" depart="285.00" from="295408462#10" to="695490086#1" type="bus"/>
    <trip id="bs_58" depart="290.00" from="-118672299#2" to="35950897#0" type="bus"/>
    <trip id="bs_59" depart="295.00" from="-828724757#1" to="910359052#9" type="bus"/>
    <trip id="bs_60" depart="300.00" from="35950868#36" to="35950897#13" type="bus"/>
    <trip id="bs_61" depart="305.00" from="698936203#5" to="-118566873#1" type="bus"/>
    <trip id="bs_62" depart="310.00" from="1282340734" to="-676453138#0" type="bus"/>
    <trip id="bs_63" depart="315.00" from="-39368999#16" to="1446429434#3" type="bus"/>
    <trip id="bs_64" depart="320.00" from="1282340736" to="693885804#0" type="bus"/>
    <trip id="bs_65" depart="325.00" from="694601892" to="-828678820" type="bus"/>
    <trip id="bs_66" depart="330.00" from="964171425#0" to="1034028676#1" type="bus"/>
    <trip id="bs_67" depart="335.00" from="295408452#0" to="295128790#4" type="bus"/>
    <trip id="bs_68" depart="340.00" from="562701502#3" to="693330103#2" type="bus"/>
    <trip id="bs_69" depart="345.00" from="-118672608#0" to="295408459#7" type="bus"/>
    <trip id="bs_70" depart="350.00" from="-118570149#0" to="693885804#0" type="bus"/>
    <trip id="bs_71" depart="355.00" from="-828678806" to="673151142#3" type="bus"/>
    <trip id="bs_72" depart="360.00" from="295408452#9" to="-118575966" type="bus"/>
    <trip id="bs_73" depart="365.00" from="160628085#0" to="1034028675#2" type="bus"/>
    <trip id="bs_74" depart="370.00" from="828678793#0" to="302751284#0" type="bus"/>
    <trip id="bs_75" depart="375.00" from="295408459#1" to="-118570168#1" type="bus"/>
    <trip id="bs_76" depart="380.00" from="-302751295#6" to="1418093030" type="bus"/>
    <trip id="bs_77" depart="385.00" from="408161670#17" to="118673947#1" type="bus"/>
    <trip id="bs_78" depart="390.00" from="35950868#20" to="695504114#0" type="bus"/>
    <trip id="bs_79" depart="395.00" from="-1447078728#0" to="694598419#1" type="bus"/>
    <trip id="bs_80" depart="400.00" from="1280219257#0" to="1446454670" type="bus"/>
    <trip id="bs_81" depart="405.00" from="1392384120#3" to="1279915897" type="bus"/>
    <trip id="bs_82" depart="410.00" from="828678862#0" to="295449627#2" type="bus"/>
    <trip id="bs_83" depart="415.00" from="695025560#0" to="118673944#6" type="bus"/>
    <trip id="bs_84" depart="420.00" from="-405113892#2" to="-695446623#1" type="bus"/>
    <trip id="bs_85" depart="425.00" from="1391330070#12" to="-1279915898#8" type="bus"/>
    <trip id="bs_86" depart="430.00" from="695025562#1" to="694767769" type="bus"/>
    <trip id="bs_87" depart="435.00" from="695496042#1" to="695040552#1" type="bus"/>
    <trip id="bs_88" depart="440.00" from="694583900#0-AddedOffRampEdge" to="373009311#1" type="bus"/>
    <trip id="bs_89" depart="445.00" from="694598419#0" to="694775628#2" type="bus"/>
    <trip id="bs_90" depart="450.00" from="295408459#4" to="694775628#2" type="bus"/>
    <trip id="bs_91" depart="455.00" from="695295267#0" to="-39368999#21" type="bus"/>
    <trip id="bs_92" depart="460.00" from="562701502#2" to="39368999#21" type="bus"/>
    <trip id="bs_93" depart="465.00" from="-35950868#4" to="676438755" type="bus"/>
    <trip id="bs_94" depart="470.00" from="-828724776" to="676465939#3" type="bus"/>
    <trip id="bs_95" depart="475.00" from="828678876#0" to="696169688" type="bus"/>
    <trip id="bs_96" depart="480.00" from="1280219265" to="1280089222" type="bus"/>
    <trip id="bs_97" depart="485.00" from="695504114#1" to="-828395782" type="bus"/>
    <trip id="bs_98" depart="490.00" from="-828724746" to="-828678784" type="bus"/>
    <trip id="bs_99" depart="495.00" from="-1282340712" to="695295267#2" type="bus"/>
    <trip id="bs_100" depart="500.00" from="697200467#10" to="697200467#9" type="bus"/>
    <trip id="bs_101" depart="505.00" from="1280614485" to="372467078#2" type="bus"/>
    <trip id="bs_102" depart="510.00" from="118673928" to="828678817#4" type="bus"/>
    <trip id="bs_103" depart="515.00" from="35950897#6" to="694601892" type="bus"/>
    <trip id="bs_104" depart="520.00" from="695026460#0" to="695025560#1" type="bus"/>
    <trip id="bs_105" depart="525.00" from="118570175" to="295408461#1" type="bus"/>
    <trip id="bs_106" depart="530.00" from="828724763#0" to="-828724708" type="bus"/>
    <trip id="bs_107" depart="535.00" from="-1207701497" to="295408452#0" type="bus"/>
    <trip id="bs_108" depart="540.00" from="828724770" to="964171425#5" type="bus"/>
    <trip id="bs_109" depart="545.00" from="408161670#28" to="-39368999#14" type="bus"/>
    <trip id="bs_110" depart="550.00" from="1280219259#0" to="1280614505#1" type="bus"/>
    <trip id="bs_111" depart="555.00" from="295128790#4" to="1379125025" type="bus"/>
    <trip id="bs_112" depart="560.00" from="693885804#2" to="765351891#4" type="bus"/>
    <trip id="bs_113" depart="565.00" from="160628085#1" to="1426764507#2" type="bus"/>
    <trip id="bs_114" depart="570.00" from="-828678785#0" to="697869050#1" type="bus"/>
    <trip id="bs_115" depart="575.00" from="1210918873#0" to="408161670#27" type="bus"/>
    <trip id="bs_116" depart="580.00" from="1034028676#0" to="-295386152#11" type="bus"/>
    <trip id="bs_117" depart="585.00" from="697200467#11" to="295449627#0" type="bus"/>
    <trip id="bs_118" depart="590.00" from="1034028678" to="-118688839#1" type="bus"/>
    <trip id="bs_119" depart="595.00" from="408161670#24" to="1282715056" type="bus"/>
</routes>
