<?xml version="1.0" encoding="UTF-8"?>

<!-- generated on 2026-03-22 01:29:13.423139 by Eclipse SUMO randomTrips.py v1_26_0+0000-fa7df22d7f1
<configuration>
    <net-file value="D:\WeSaveTime-ASEAN\sumo\danang\danang.net.xml"/>
    <additional-files value="D:\WeSaveTime-ASEAN\sumo\danang\danang.vtypes.xml"/>
    <weights-prefix value="D:\WeSaveTime-ASEAN\sumo\danang\danang.weights"/>
    <output-trip-file value="D:\WeSaveTime-ASEAN\sumo\danang\danang.sv_.trips.xml"/>
    <prefix value="sv_"/>
    <trip-attributes value="type=&quot;car_suv&quot;"/>
    <fringe-factor value="5"/>
    <random value="True"/>
    <remove-loops value="True"/>
    <end value="600.0"/>
    <period value="7.5"/>
</configuration>
-->

<routes xmlns:xsi="http://www.w3.org/2001/XMLSchema-instance" xsi:noNamespaceSchemaLocation="http://sumo.dlr.de/xsd/routes_file.xsd">
    <trip id="sv_0" depart="0.00" from="695295267#0" to="-828678911" type="car_suv"/>
    <trip id="sv_1" depart="7.50" from="295408468#0" to="828678814#2" type="car_suv"/>
    <trip id="sv_2" depart="15.00" from="964171425#0" to="-405113893#1" type="car_suv"/>
    <trip id="sv_3" depart="22.50" from="-118672464#2" to="695025560#0" type="car_suv"/>
    <trip id="sv_4" depart="30.00" from="-676465939#2" to="302751282-AddedOnRampEdge" type="car_suv"/>
    <trip id="sv_5" depart="37.50" from="295408459#0" to="-118672299#0" type="car_suv"/>
    <trip id="sv_6" depart="45.00" from="-39368999#2" to="295408468#0" type="car_suv"/>
    <trip id="sv_7" depart="52.50" from="-118570159#16" to="-405113892#3" type="car_suv"/>
    <trip id="sv_8" depart="60.00" from="1280219258#0" to="828724768#4" type="car_suv"/>
    <trip id="sv_9" depart="67.50" from="695496039#3" to="372467078#1" type="car_suv"/>
    <trip id="sv_10" depart="75.00" from="1280219261" to="35950883#7" type="car_suv"/>
    <trip id="sv_11" depart="82.50" from="-895487327" to="302739242#1" type="car_suv"/>
    <trip id="sv_12" depart="90.00" from="35950882#8" to="693885804#0" type="car_suv"/>
    <trip id="sv_13" depart="97.50" from="1280219257#2" to="1280219260#0" type="car_suv"/>
    <trip id="sv_14" depart="105.00" from="-828724763#4" to="-641397124" type="car_suv"/>
    <trip id="sv_15" depart="112.50" from="676489596#2" to="-828678777#1" type="car_suv"/>
    <trip id="sv_16" depart="120.00" from="765351891#2" to="35950882#9" type="car_suv"/>
    <trip id="sv_17" depart="127.50" from="696991611#0" to="694767769" type="car_suv"/>
    <trip id="sv_18" depart="135.00" from="408161670#27" to="1280219257#0" type="car_suv"/>
    <trip id="sv_19" depart="142.50" from="964171425#2" to="1418093030" type="car_suv"/>
    <trip id="sv_20" depart="150.00" from="1280089201#1" to="295408452#10" type="car_suv"/>
    <trip id="sv_21" depart="157.50" from="-372464937#5" to="964171425#6" type="car_suv"/>
    <trip id="sv_22" depart="165.00" from="694830396" to="372466117#1" type="car_suv"/>
    <trip id="sv_23" depart="172.50" from="118570159#3" to="35950897#0" type="car_suv"/>
    <trip id="sv_24" depart="180.00" from="295408462#10" to="-676453138#1" type="car_suv"/>
    <trip id="sv_25" depart="187.50" from="-695446623#0" to="372220804#23" type="car_suv"/>
    <trip id="sv_26" depart="195.00" from="295408462#10" to="828678811#0" type="car_suv"/>
    <trip id="sv_27" depart="202.50" from="1280614504#2" to="408161670#21" type="car_suv"/>
    <trip id="sv_28" depart="210.00" from="118570169#0" to="693416739#0" type="car_suv"/>
    <trip id="sv_29" depart="217.50" from="-405113894" to="-1458964293" type="car_suv"/>
    <trip id="sv_30" depart="225.00" from="295408462#12" to="693885802#0" type="car_suv"/>
    <trip id="sv_31" depart="232.50" from="1280219259#1" to="695496039#2" type="car_suv"/>
    <trip id="sv_32" depart="240.00" from="372467085#0" to="964171425#4" type="car_suv"/>
    <trip id="sv_33" depart="247.50" from="697200467#1" to="-696755556#0" type="car_suv"/>
    <trip id="sv_34" depart="255.00" from="828678860#2" to="698993299" type="car_suv"/>
    <trip id="sv_35" depart="262.50" from="697200467#4" to="695446625#0" type="car_suv"/>
    <trip id="sv_36" depart="270.00" from="1280089222" to="295408461#10" type="car_suv"/>
    <trip id="sv_37" depart="277.50" from="693885804#0" to="35950887" type="car_suv"/>
    <trip id="sv_38" depart="285.00" from="-562701502#2" to="372464931#2" type="car_suv"/>
    <trip id="sv_39" depart="292.50" from="35950897#15" to="694601892" type="car_suv"/>
    <trip id="sv_40" depart="300.00" from="1034028677#1" to="695295267#0" type="car_suv"/>
    <trip id="sv_41" depart="307.50" from="-561913438#0" to="698936202#0" type="car_suv"/>
    <trip id="sv_42" depart="315.00" from="695025562#0" to="694601892" type="car_suv"/>
    <trip id="sv_43" depart="322.50" from="828678912#0" to="-372467084#0" type="car_suv"/>
    <trip id="sv_44" depart="330.00" from="35950897#1" to="828724723" type="car_suv"/>
    <trip id="sv_45" depart="337.50" from="295408464#0-AddedOffRampEdge" to="118570172#0" type="car_suv"/>
    <trip id="sv_46" depart="345.00" from="1280089222" to="1034028675#0" type="car_suv"/>
    <trip id="sv_47" depart="352.50" from="695025560#0" to="295386152#5" type="car_suv"/>
    <trip id="sv_48" depart="360.00" from="408161670#23" to="828678801#0" type="car_suv"/>
    <trip id="sv_49" depart="367.50" from="1282340718" to="695025562#0" type="car_suv"/>
    <trip id="sv_50" depart="375.00" from="35950897#10" to="302751284#3" type="car_suv"/>
    <trip id="sv_51" depart="382.50" from="695033474#1" to="1210918872#0" type="car_suv"/>
    <trip id="sv_52" depart="390.00" from="-561913437#0" to="295408468#4" type="car_suv"/>
    <trip id="sv_53" depart="397.50" from="-563780767#0" to="295408452#16" type="car_suv"/>
    <trip id="sv_54" depart="405.00" from="694598419#1-AddedOnRampEdge" to="-641120965#1" type="car_suv"/>
    <trip id="sv_55" depart="412.50" from="295408463#1" to="-118672607#5" type="car_suv"/>
    <trip id="sv_56" depart="420.00" from="-118570149#4" to="695025560#0" type="car_suv"/>
    <trip id="sv_57" depart="427.50" from="695025560#0" to="696169688" type="car_suv"/>
    <trip id="sv_58" depart="435.00" from="372220804#0" to="372464934#1" type="car_suv"/>
    <trip id="sv_59" depart="442.50" from="295408452#10" to="695496040" type="car_suv"/>
    <trip id="sv_60" depart="450.00" from="-118672607#4" to="828678826#1" type="car_suv"/>
    <trip id="sv_61" depart="457.50" from="696168834#1" to="697200467#8" type="car_suv"/>
    <trip id="sv_62" depart="465.00" from="910359052#9" to="-372464931#2" type="car_suv"/>
    <trip id="sv_63" depart="472.50" from="641457630" to="964171425#3" type="car_suv"/>
    <trip id="sv_64" depart="480.00" from="160628085#2" to="408161670#27" type="car_suv"/>
    <trip id="sv_65" depart="487.50" from="160628085#2" to="964171425#0" type="car_suv"/>
    <trip id="sv_66" depart="495.00" from="695502613" to="295408461#9" type="car_suv"/>
    <trip id="sv_67" depart="502.50" from="-35950868#2" to="199383481" type="car_suv"/>
    <trip id="sv_68" depart="510.00" from="828678846" to="118575976#1" type="car_suv"/>
    <trip id="sv_69" depart="517.50" from="295408468#6" to="694598419#0" type="car_suv"/>
    <trip id="sv_70" depart="525.00" from="408161670#22" to="-695054805#0" type="car_suv"/>
    <trip id="sv_71" depart="532.50" from="1165643361" to="1280614485" type="car_suv"/>
    <trip id="sv_72" depart="540.00" from="295408464#0-AddedOffRampEdge" to="-828678837#0" type="car_suv"/>
    <trip id="sv_73" depart="547.50" from="694600787" to="689583171#7" type="car_suv"/>
    <trip id="sv_74" depart="555.00" from="1034028675#2" to="-895477503" type="car_suv"/>
    <trip id="sv_75" depart="562.50" from="160628085#0" to="828724751" type="car_suv"/>
    <trip id="sv_76" depart="570.00" from="695295267#0" to="-695090346#3" type="car_suv"/>
    <trip id="sv_77" depart="577.50" from="35950925#3" to="-39354228#3" type="car_suv"/>
    <trip id="sv_78" depart="585.00" from="696168834#1" to="295408452#5" type="car_suv"/>
    <trip id="sv_79" depart="592.50" from="697200467#4-AddedOffRampEdge" to="-118672444#5" type="car_suv"/>
</routes>
