<?xml version='1.0' encoding='utf-8'?>
<routes xmlns:xsi="http://www.w3.org/2001/XMLSchema-instance" xsi:noNamespaceSchemaLocation="http://sumo.dlr.de/xsd/routes_file.xsd">
    <vType id="motorbike" length="2.20" maxSpeed="11.11" speedFactor="normc(1.00,0.15,0.20,2.00)" vClass="motorcycle" guiShape="motorcycle" width="0.80" color="230,179,51" accel="3.0" decel="4.5" sigma="0.7" />
    <vehicle id="ma_0" type="motorbike" depart="0.00">
        <route edges="302751295#1 -372464937#5 -372464937#4 -372464937#1 -372464937#0 118672608#3 -118672619#3 -118672619#2 -118672619#1 -118672619#0 118672607#3 118672607#4 118672607#5 -828724762 -828724763#3 -828724763#2 -828724764#1 828724757#0 828724757#1" />
    </vehicle>
    <vType id="motorbike2" length="2.00" maxSpeed="12.50" speedFactor="normc(1.10,0.20,0.20,2.00)" vClass="motorcycle" guiShape="motorcycle" width="0.70" color="51,153,230" accel="3.5" decel="5.0" sigma="0.8" />
    <vType id="car" length="4.50" maxSpeed="13.89" speedFactor="normc(1.00,0.10,0.20,2.00)" vClass="passenger" guiShape="passenger" width="1.80" color="51,153,230" accel="2.5" decel="4.0" sigma="0.5" />
    <vehicle id="ca_0" type="car" depart="0.00">
        <route edges="1282340772 1280614485 1280219257#0 1280219257#1 1280219257#2 694767769" />
    </vehicle>
    <vType id="car_suv" length="4.80" maxSpeed="13.89" speedFactor="normc(1.00,0.10,0.20,2.00)" vClass="passenger" guiShape="passenger/sedan" width="2.00" color="204,51,51" accel="2.2" decel="3.8" sigma="0.5" />
    <vType id="taxi" length="4.50" maxSpeed="13.89" speedFactor="normc(0.90,0.10,0.20,2.00)" vClass="passenger" guiShape="passenger/sedan" width="1.80" color="255,255,51" accel="2.5" decel="4.0" sigma="0.4" />
    <vehicle id="tx_0" type="taxi" depart="0.00">
        <route edges="372466120#2 561913437#3 561913437#4 -561913437#4 -561913437#3 -673151181 -372466120#0 -302751295#12 561474249#0 676467950 118672633#0 118672633#1 118672633#2 118672633#3 561426521 -35950882#5 -35950882#2 1034028675#2 1034028675#6 1034027336#2 1034028676#0" />
    </vehicle>
    <vType id="bus" length="12.00" maxSpeed="11.11" speedFactor="normc(0.80,0.05,0.20,2.00)" vClass="bus" guiShape="bus" width="2.50" color="51,204,77" accel="1.5" decel="3.0" sigma="0.4" />
    <vType id="truck" length="10.00" maxSpeed="8.33" speedFactor="normc(0.70,0.10,0.20,2.00)" vClass="truck" guiShape="truck" width="2.50" color="179,77,77" accel="1.2" decel="3.0" sigma="0.4" />
    <vehicle id="tk_0" type="truck" depart="0.00">
        <route edges="300947940 -641082247 694594970#0 694600787 160628085#0 160628085#1 160628085#2 1280089222 1280089201#0 295408452#0 295408452#1 295408452#5 295408452#6 295408452#7 295408452#8 295408452#9 -302751295#23 -302751295#22 -302751295#21 -302751295#20 -302751295#18 -302751295#16 -302751295#14 -302751295#12 -302751295#11 -302751295#10 -302751295#9 -302751295#8 -302751295#7 -302751295#6 -302751295#5 -302751295#4 -302751295#3 -302751295#2 -302751295#1 -302751295#0 -1279915898#9 -1279915898#8 -1279915898#5 -1279915898#3 -1279915898#1 -765351891#4 -765351891#3 118672299#0 118672299#1 118672299#2" />
    </vehicle>
    <vType id="delivery" length="6.00" maxSpeed="11.11" speedFactor="normc(0.85,0.10,0.20,2.00)" vClass="truck" guiShape="truck" width="2.20" color="153,102,51" accel="1.8" decel="3.5" sigma="0.5" />
    <vehicle id="ma_1" type="motorbike" depart="0.44">
        <route edges="295449627#4 -371909428 696169688 696169687#1 695446625#0 695446625#1 695446625#3 695490087#1 695490086#1 295449625#0 295449625#1 695496042#0 695496042#1 695496042#2 295408465#0 295408465#1" />
    </vehicle>
    <vehicle id="ma_2" type="motorbike" depart="0.88">
        <route edges="-1076293830#1 828724763#0 828724763#1 828724763#2 828724763#3 828724762 -118672607#5 -118672607#4 -118672607#3 -118672607#2 -118672607#1 -118672607#0 -35950868#25 -35950868#23 -562701506#1 -562701506#0 408161670#23 408161670#24 -118573597 -765351891#3 118672299#0 118672299#1 642353277 -642353277" />
    </vehicle>
    <vehicle id="ca_1" type="car" depart="1.67">
        <route edges="697200467#8 697200467#9 697200467#10 697200467#11 1280089201#2 -694715298 -694715297 -39368999#21 -39368999#20 -39368999#16 -39368999#15 -39368999#14 -39368999#13 -39368999#12 -39368999#10 -39368999#9 -39368999#8 -39368999#5 118566872#0 118566872#1 118566872#2 118566872#3 118566872#4 118566872#5 -1387292390#1 -1387292390#0" />
    </vehicle>
    <vehicle id="ma_4" type="motorbike" depart="1.76">
        <route edges="694601892 695295267#0 695295267#2 695295265#0 295408460#2 828724790#1 642086911 -35950864#30 118575974#1 -35950959#11 -35950959#8 -35950959#6 -35950959#4 -35950959#3 -35950959#2 -35950959#1 -35950959#0 -643264676 295449625#0 295449625#1 695496042#0 695496042#1" />
    </vehicle>
    <vehicle id="mx_3" type="motorbike2" depart="2.61">
        <route edges="408161670#17 -118573603#2 -118573603#1 -118573603#0 -35950868#14 -35950868#13 118570181#0 118570181#2 118570181#3 118570181#4 118570181#5 118570181#6 118570181#7 118570181#8 118570181#9 562701502#0 562701502#1 562701502#2 -828678802#0 828678802#0 -562701502#2" />
    </vehicle>
    <vehicle id="ma_7" type="motorbike" depart="3.08">
        <route edges="693885804#2 1426764507#0 1426764507#2 35950897#0 35950897#1 35950897#6 -118575968#5 -118575968#1 765351891#0 765351891#2 765351891#4 1279915898#0 1279915898#2 1279915898#5 1279915898#6 1279915898#9 302751295#0 302751295#1 302751295#2 302751295#3 302751295#4 302751295#5 302751295#6 302751295#7 302751295#8 302751295#9 302751295#10 302751295#11 302751295#12 372466120#0 372466120#2 561913437#3" />
    </vehicle>
    <vehicle id="mx_4" type="motorbike2" depart="3.48">
        <route edges="641082247 663749305 -694590820 -641082247 694594970#0 694600787 160628085#0 160628085#1 160628085#2 1280089222 1280089201#0 1280089201#1 1280089201#2 1280219265 694601892 695295267#0 695295267#2 695295265#0 295408460#2 828724790#1 642086911 -35950864#30 118575974#1 -35950959#11 -35950959#8 -35950959#6 -35950959#4 -35950959#3 -35950959#2 -35950959#1 -35950959#0 -643264676 295449625#0 295449625#1 695496042#0 695496042#1" />
    </vehicle>
    <vehicle id="ma_9" type="motorbike" depart="3.96">
        <route edges="-35950850#24 -35950850#23 118575970#0 -695446623#1 -695446623#0 695504114#4 295449627#0 295449627#2 372220804#15 372220804#16 828678817#3 828678816#1 828678739 828678810#1 828678810#2 828678810#3 828678810#4 118570168#3 118570168#4 -828678811#1 -828678812" />
    </vehicle>
    <vehicle id="tx_1" type="taxi" depart="4.00">
        <route edges="1280089201#1 1280089201#2 1280219265 1280219261 1282340737 1282340736 160628085#0 624455965#0 -295408470#2 -295408470#1 -641487801 -321069035#2 321069049#0 321069061" />
    </vehicle>
    <vehicle id="ma_10" type="motorbike" depart="4.40">
        <route edges="697200467#10 697200467#11 1280089201#2 -694715298 -694715297 -39368999#21 -39368999#20 -39368999#16 -39368999#15 -39368999#14 695544823 -372220804#34 -372220804#33 -372220804#32 -118570159#16 -118570159#15 -118570159#14 -118570159#13 -118570159#11 -118570159#10 -118570159#9 -118570159#8 -118570159#7 -118570159#6 -118570159#5 -118570159#3 -118570159#2 35950868#17 35950868#18 35950868#19 35950868#20 642360965#0 828678868" />
    </vehicle>
    <vehicle id="bs_1" type="bus" depart="5.00">
        <route edges="695030266 695033474#1 1279915895#0 295128790#4 295128790#10 693885804#0 693885804#2 693416427 693416739#0" />
    </vehicle>
    <vehicle id="mx_6" type="motorbike2" depart="5.22">
        <route edges="673151147#0 1034028678 1034027336#0 1034027336#1 1034027336#2 1282340718 1282340717#0 1282340717#1 1282340717#2 1034028677#0 1034028677#1 1282340735 694774375#0 694775628#0 694775628#2 302751284#0 302751284#3 673151142#2 673151142#3 673151142#4 673151142#5 695025562#0 695025562#1 695025559 693885802#0 693885802#2 695030266 695033474#1 1279915895#0 295128790#4 295128790#10" />
    </vehicle>
    <vehicle id="ma_13" type="motorbike" depart="5.72">
        <route edges="694594970#0 694600787 160628085#0 160628085#1 160628085#2 1280089222 1280089201#0 1280089201#1 1280089201#2 1280219265 694601892 695295267#0 695295267#2 695295265#0 295408460#2 295408460#3 1280219259#0 1280219259#1 295408468#0 295408468#4 295408468#5 295408468#6 1280219267 695496040 1280614505#0 1280614505#1 295394152#0 295394152#1" />
    </vehicle>
    <vehicle id="ma_14" type="motorbike" depart="6.16">
        <route edges="828678770 676453138#1 118570159#14 118570159#15 118570159#16 -372220804#31 -118575976#1 -118575976#0 -118566872#2 -1387292391 -118575967 -118570149#3 -118570149#2 -118570149#1 -118570149#0 -35950959#4 -35950959#3 673151200#0 -828724821#1 -828724821#0 695502611#0 695502611#1" />
    </vehicle>
    <vehicle id="tk_1" type="truck" depart="6.67">
        <route edges="408161670#22 408161670#23 408161670#24 408161670#25 408161670#27 408161670#28 1279915898#5 1279915898#6 1279915898#9 302751295#0 302751295#1 302751295#2 302751295#3 302751295#4 302751295#5 302751295#6 302751295#7 302751295#8 35950942#0 35950942#1 35950942#2 697200467#1" />
    </vehicle>
    <vehicle id="ca_4" type="car" depart="6.68">
        <route edges="-35950868#9 -35950868#8 -35950868#7 -35950868#6 -118570168#9 -118570168#8 -118570168#7 -118570168#6 -118570169#2 -118570169#1 828678794#0 828678794#1" />
    </vehicle>
    <vehicle id="ma_16" type="motorbike" depart="7.04">
        <route edges="-372220804#3 -118570167#1 -118570167#0 -118570151#1 -118570151#0 -676712674 295449629#0 295449629#1 295449629#2 39354228#4 39354228#5 39354228#6 39354228#7 -39354228#8" />
    </vehicle>
    <vehicle id="mx_9" type="motorbike2" depart="7.83">
        <route edges="695496039#1 695496039#2 695496039#3 695502614 118673929#0 118673929#1 118673929#2 118673929#3 118673929#5 118673929#7 295408466#1 1280219259#1 1280219266 1280219260#0 1280219260#1 295408462#0 295408462#1 295408462#8 295408462#10 295408462#12 1282340737 1282340736 160628085#0 160628085#1 160628085#2 1280089222 1280089201#0 295408452#0 295408452#1 295408452#5 295408452#6 295408452#7 295408452#8 295408452#9 295408452#10 295408452#11 295408452#16 295408452#16-AddedOffRampEdge 1034028675#0 1034028675#2 1034028675#6 1034027336#2 1282340718 1282340717#0 694772625#0 1210918873#0 1392384124 693330103#2 1210918872#0" />
    </vehicle>
    <vehicle id="sv_2" type="car_suv" depart="8.00">
        <route edges="895450605 -895450605 -560329291#0 673151145#1 372467084#0 372467084#1 372467087#0 894924691 35950882#8 35950882#9 35950882#10 35950882#11 35950882#14 -35950868#38 -35950868#37 -35950868#36 -35950868#35 -35950868#33 -35950868#31 -35950868#30 -35950868#29 -35950868#28 -35950868#26 -35950868#25 -35950868#23 -35950868#22 -35950868#21 -35950868#20 -35950868#19 -35950868#18 -35950868#17 -35950868#16 -35950868#15 -35950868#14 -35950868#13 -35950868#12 -35950868#10 -35950868#9 -35950868#8 -35950868#7 -35950868#6 -118570168#9 828678837#0" />
    </vehicle>
    <vehicle id="ca_5" type="car" depart="8.35">
        <route edges="693416739#3 35950887 689583171#7 689583171#10 689583171#11 689583171#12 689583171#15 695025560#0 695025560#1 256668722 693885804#0 693885804#2 693416427" />
    </vehicle>
    <vehicle id="mx_10" type="motorbike2" depart="8.70">
        <route edges="828678838 -828678838 35950868#7 35950868#8 35950868#9 35950868#10 35950868#11 35950868#13 35950868#14 35950868#15 35950868#16 35950868#17 35950868#18 35950868#19 35950868#20 35950868#21 35950868#22 -562701506#1 -562701506#0 408161670#23 408161670#24 -118573597 -765351891#3 118672299#0 302739239#0 302739239#1 302739239#2" />
    </vehicle>
    <vehicle id="ma_21" type="motorbike" depart="9.24">
        <route edges="676458408 964171425#4 964171425#5 964171425#6 1282340716 1418093030 302751282-AddedOnRampEdge 302751282" />
    </vehicle>
    <vehicle id="ma_22" type="motorbike" depart="9.68">
        <route edges="694601892 695295267#0 695295267#2 -118674615#1 -35950864#20 -35950864#18 -39368999#21 -39368999#20 -39368999#16 -39368999#15 -39368999#14 -39368999#13 -39368999#12 828724684#0" />
    </vehicle>
    <vehicle id="ca_6" type="car" depart="10.02">
        <route edges="910359052#9 697200467#0 -35950942#2 -35950942#1 -35950942#0 -302751295#8 -302751295#7 -302751295#6 -302751295#5 -302751295#4 -302751295#3 -302751295#2 -302751295#1 -302751295#0 -1279915898#9 -1279915898#8 -1279915898#5 -1279915898#3 -1279915898#1 -765351891#4 -765351891#3 118672299#0 118672299#1 118672299#2 118672299#3 704621733#0 -1282340713#0" />
    </vehicle>
    <vehicle id="mx_12" type="motorbike2" depart="10.44">
        <route edges="118672444#4 -641466472 964171425#6 -673151147#1 -118672444#5 -118672444#4 -118672444#3 -118672444#1 -673151144#0 -118575969#1 -118575969#0 -118555049#1 -118555049#0 1279915898#0 1279915898#2 1279915898#5 1279915898#6 1279915898#9 -35950868#38 -35950868#37 -35950868#36 -35950868#35 -35950868#33 -35950868#31 -35950868#30 -35950868#29 -35950868#28 -35950868#26 -35950868#25 -35950868#23 -35950868#22 -35950868#21 -35950868#20 -35950868#19 -35950868#18 -35950868#17 118570159#0 118570159#3 118570159#4 118570159#6 118570159#7 118570159#8 118570159#9 118570159#10 118570159#11 118570159#12 118570159#14 118570159#15 118570159#16 372220804#32 372220804#33 372220804#34 -695544823 39368999#14" />
    </vehicle>
    <vehicle id="ma_25" type="motorbike" depart="11.00">
        <route edges="695040552#1 1279915919 1279915896#0 1279915896#1 1282715056 1282340752 1279915897 695510008#0 695510008#1 695510008#2 35950868#0 35950868#1 35950868#3 35950868#4 35950868#5 35950868#6 35950868#7 35950868#8 35950868#9 35950868#10 35950868#11 35950868#13 35950868#14 35950868#15 35950868#16 35950868#17 35950868#18 35950868#19 35950868#20 35950868#21 35950868#22 35950868#23 35950868#24 118672607#0 118672607#1 118672607#2 118672607#3 118672607#4 118672607#5 -828724762 -828724763#3 -828724763#2 -828724764#1 -828724764#0 -828724768#1 -828724768#0 562701507#0 562701507#1 -118673937#4 -561913438#6 -561913438#4 828724695" />
    </vehicle>
    <vehicle id="ma_26" type="motorbike" depart="11.44">
        <route edges="300947940 -641082247 694594970#0 694600787 160628085#0 160628085#1 160628085#2 1280089222 1280089201#0 295408452#0 295408452#1 295408452#5 295408452#6 295408452#7 295408452#8 295408452#9 295408452#10 295408452#11 295408452#16 295408452#16-AddedOffRampEdge 1034028675#0 1034028675#2 1034028675#6 1034027336#2 1282340718 1282340717#0 694772625#0 1210918873#0 1392384124 693330103#2" />
    </vehicle>
    <vehicle id="ma_27" type="motorbike" depart="11.88">
        <route edges="118570164#1 828678830 -828678830 -118570164#1 -118570164#0 118570181#2 118570181#3 118570181#4 118570181#5 118570181#6 118570181#7 118570181#8 118570181#9 562701502#0 562701502#1 562701502#2 562701502#3 562701502#4 372220804#29 372220804#30 372220804#31 372220804#32 372220804#33 372220804#34 -695544823 39368999#14 39368999#15 39368999#16 39368999#17 39368999#21 -35950864#17 -35950864#16 405962811#0 405962811#2" />
    </vehicle>
    <vehicle id="tx_3" type="taxi" depart="12.00">
        <route edges="-828678816#0 295449627#5 698046188#1 1279915897 695510008#0 695510008#1 695510008#2 35950868#0 35950868#1 35950868#3 35950868#4 35950868#5 35950868#6 828678838 -828678838" />
    </vehicle>
    <vehicle id="ma_28" type="motorbike" depart="12.32">
        <route edges="295128790#3 1279915895#1 408161670#0 -372467078#4 -372467078#2 -372467078#1 -372467078#0 -35950868#8 -35950868#7 -35950868#6 -35950868#5 -35950868#4 -35950868#3 -35950868#2 -35950868#0 -695510008#3 -695510008#1 -695510008#0 1282340739 118567494 1279915919 1279915896#0 1279915896#1 1282715056 696168834#0 696168834#1 696169688 696169687#1 695446625#0 695446625#1 118566872#11 -118566873#2 -118566873#1 -118566873#0 -695446623#1 -695446623#0" />
    </vehicle>
    <vehicle id="mx_15" type="motorbike2" depart="13.05">
        <route edges="697200467#10 697200467#11 1280089201#2 -694715298 -694715297 -39368999#21 -39368999#20 -39368999#16 -39368999#15 -39368999#14 695544823 -372220804#34 -372220804#33 -372220804#32 -372220804#31 -372220804#30 -372220804#29 -372220804#28 -372220804#27 -372220804#22 -372220804#21 118570168#0 118570168#1 118570168#2 118570168#3 118570168#4 118570168#5 118570168#6 118570168#7 -344658497#3 118570178#0 118570178#1" />
    </vehicle>
    <vehicle id="tk_2" type="truck" depart="13.34">
        <route edges="828678869#1 -828678869#1 -828678870 408161670#24 408161670#25 408161670#27 408161670#28 1279915898#5 1279915898#6 1279915898#9 -35950868#38 -35950868#37 -35950868#36 -35950868#35 -35950868#33 -35950868#31 -35950868#30 -35950868#29 -35950868#28 -35950868#26 118672607#0 118672607#1 118672607#2 118672607#3 118672607#4 118672607#5 676453140#0 676453140#2 118672606#7 676453139#0 828678777#0 828678776 -828678776" />
    </vehicle>
    <vehicle id="ca_8" type="car" depart="13.36">
        <route edges="673151142#5 695025562#0 695025562#1 695025559 693885802#0 693885802#2 695030266 695033474#1 695040105#0 695040105#3 695040105#5 695040552#0 695040552#1 1279915919 1279915896#0 1279915896#1 1282715056 696168834#0 696168834#1 696169688 696169687#1 695446625#0 695446625#1 695446625#3 695490087#1 695490086#1 295449625#0 295449625#1 695496042#0 695496042#1 695496042#2 695496040 1280219250 694767769 1280219267" />
    </vehicle>
    <vehicle id="mx_16" type="motorbike2" depart="13.92">
        <route edges="-118575975#4 -118575975#3 828678741#0 828678740 302739240#3 302739240#4 693885802#2 695030266 695033474#1 695040105#0 695040105#3 695040105#5 695040552#0 695040552#1 1279915919 1279915896#0 1279915896#1 1282715056 696168834#0 696168834#1 696169688 696169687#1 372220804#15 372220804#16 372220804#17 372220804#18 372220804#19 372220804#20 372220804#21 372220804#22 372220804#23 372220804#28 372220804#29 372220804#30 372220804#31 372220804#32 372220804#33 372220804#34 -695544823 39368999#14 39368999#15 39368999#16 39368999#17 39368999#21 694715299#1 694715298 1280219265 1280219261 1282340737 1282340736 160628085#0 624455965#0 -295408470#2 -295408470#1 -641487801 -321069035#2 -321069035#0 -118672464#2" />
    </vehicle>
    <vehicle id="ma_33" type="motorbike" depart="14.52">
        <route edges="693330103#0 693330103#2 1210918872#0 1210918872#1 1282340717#2 1282340719 1034027336#0 910359052#0 910359052#3 910359052#5 910359052#7 910359052#8 910359052#9 697200467#0 697200467#1 697200467#4 697200467#4-AddedOffRampEdge 697200467#7 697200467#8 697200467#9 697200467#10 697200467#11 1280089201#2 1280219265 694601892 695295267#0 695295267#2 695295265#0 295408460#2 295408460#3 1280219259#0 1280219259#1 295408468#0 295408468#4 295408468#5 295408468#6 1280219267 695496040 1280219250 694767769" />
    </vehicle>
    <vehicle id="ma_34" type="motorbike" depart="14.96">
        <route edges="1282340733#1 641397119#0 641397119#1 1282340713#0 1282340713#1 -676458410#0 302751284#3 673151142#2 673151142#3 673151142#4 673151142#5 695025562#0 695025562#1 695025559 693885802#0 693885802#2 695030266 695033474#1 695040105#0 695040105#3 1447078728#2 295128790#0 295128790#3" />
    </vehicle>
    <vehicle id="ca_9" type="car" depart="15.03">
        <route edges="964171425#0 1352258993#0 -673151144#1 -673151144#0 -118575969#1 -118575969#0 -118555049#1 -118555049#0 1279915898#0 1279915898#2 1279915898#5 1279915898#6 1279915898#9 302751295#0 302751295#1 302751295#2 302751295#3 302751295#4 302751295#5 302751295#6 302751295#7 302751295#8 302751295#9 302751295#10 302751295#11 302751295#12 302751295#13 302751295#15 35950864#0 35950864#3 35950864#6 35950864#8 35950864#14 35950864#17 35950864#18 35950864#19 35950864#21 35950864#22 35950864#23 35950864#24 35950864#25 35950864#28 35950864#30 -642086911 295408466#0 295408466#1 1280219259#1 1280219266 1280219260#0 673151198#0 673151198#1 1280614484 1280614485 1280219257#0 1280219257#1 1280219257#2" />
    </vehicle>
    <vehicle id="mx_18" type="motorbike2" depart="15.66">
        <route edges="-405113896#1 -405113895 -405113892#3 -405113892#2 -118674615#4 -118674615#3 -118674615#2 -118674615#1 -35950864#20 -35950864#18 -39368999#21 -39368999#20 -39368999#16 -39368999#15 -39368999#14 -39368999#13 -39368999#12 -39368999#10 -39368999#9 -39368999#8 -39368999#5 -39368999#3 -39368999#2 -39368999#1 -39368999#0 695446623#0 695446623#1 39354228#1 39354228#4 39354228#5 39354228#6" />
    </vehicle>
    <vehicle id="sv_4" type="car_suv" depart="16.00">
        <route edges="1034028676#1 -302751298 -643237807#1 905050168 643237806#0 643237806#1 -1279915900#1 910359052#3 910359052#5 35950882#1 35950882#3 35950882#7 35950882#8 35950882#9 35950882#10 35950882#11 35950882#14 -35950868#38 -35950868#37 -35950868#36 -35950868#35 -35950868#33 -35950868#31 -35950868#30 -35950868#29 -35950868#28 -35950868#26 -35950868#25 -35950868#23 -35950868#22 -35950868#21 -35950868#20 -35950868#19 -35950868#18 -35950868#17 -35950868#16 -35950868#15 -35950868#14 -35950868#13 -35950868#12 -562701499 562701499 35950868#11" />
    </vehicle>
    <vehicle id="ma_37" type="motorbike" depart="16.28">
        <route edges="676450959 -118566872#3 -118566872#2 -118566872#1 -118566872#0 39368999#4 39368999#6 39368999#9 39368999#10 39368999#11" />
    </vehicle>
    <vehicle id="ca_10" type="car" depart="16.70">
        <route edges="694830397 694830395#0 694830395#1 695025562#0 695025562#1 695025559 693885802#0 693885802#2 695030266 695033474#1 695040105#0 695040105#3 695040105#5 695040552#0 695040552#1 1279915919 1279915896#0 1279915896#1 1282715056 696168834#0 696168834#1 696169688 696169687#1 695446625#0 695446625#1 695446625#3 695490087#1 695490086#1 295449625#0 295449625#1 695496042#0 695496042#1 695496042#2 695496040 1280219250 694767769 695496039#0" />
    </vehicle>
    <vehicle id="ma_39" type="motorbike" depart="17.16">
        <route edges="1355319664 -1355319664 408161670#20 -642360965#3 -642360965#2 -642360965#1 -642360965#0 -35950868#20 -35950868#19 -35950868#18 -35950868#17 -35950868#16 -35950868#15 -35950868#14 -35950868#13 -35950868#12 -35950868#10 -35950868#9 -35950868#8 -35950868#7 -35950868#6 -35950868#5 -35950868#4 -35950868#3 -35950868#2 -35950868#0 -695510008#3 -695510008#1 -695510008#0 1282340739 118567494 1279915919 1279915896#0 1279915896#1 1282715056 696168834#0 696168834#1 696169688 696169687#1 695446625#0 695446625#1 695446625#3 695490087#1 695490086#1 643264676 695504114#0 695504114#1" />
    </vehicle>
    <vehicle id="ma_40" type="motorbike" depart="17.60">
        <route edges="-302751295#16 -302751295#14 -302751295#12 -302751295#11 -302751295#10 -302751295#9 -302751295#8 -302751295#7 -302751295#6 -302751295#5 -302751295#4 -302751295#3 -302751295#2 -302751295#1 -302751295#0 -35950868#38 -35950868#37 -35950868#36 -35950868#35 -35950868#33 -35950868#31 -35950868#30 -35950868#29 -35950868#28 -35950868#26 -35950868#25 -35950868#23 -35950868#22 -35950868#21 -35950868#20 -35950868#19 -35950868#18 -35950868#17 -35950868#16 -35950868#15 -35950868#14 -35950868#13 -35950868#12 -35950868#10 -35950868#9 -35950868#8 -35950868#7 -35950868#6 -35950868#5 -35950868#4 -35950868#3 -35950868#2 -35950868#0 -695510008#3 -695510008#1 -695510008#0 1282340739 118567494 1279915919 35950925#0 35950925#1 35950925#2 35950925#3 35950925#5" />
    </vehicle>
    <vehicle id="mx_21" type="motorbike2" depart="18.27">
        <route edges="828724748 -828724748 -828724749#0 -118672608#1 828724747#1 828724747#2 -828678788#1 828678787#1 828678787#2 828678786 -118672606#2" />
    </vehicle>
    <vehicle id="ma_42" type="motorbike" depart="18.48">
        <route edges="343417844#0 693416739#0 371908669#0 689583171#10 689583171#11 689583171#12 302739240#0 302739240#3 302739240#4 693885802#2 695030266 695033474#1 695040105#0 695040105#3 695040105#5 695040552#0 695040552#1 1279915919 1279915896#0 1279915896#1 1282715056 1282340752 1279915897 1282340739 695510007#0" />
    </vehicle>
    <vehicle id="mx_22" type="motorbike2" depart="19.14">
        <route edges="641397122#1 641397122#4 673151142#3 673151142#4 673151142#5 695025562#0 695025562#1 695025559 693885802#0 693885802#2 695030266 695033474#1 695040105#0 695040105#3 695040105#5 695040552#0 695040552#1 1279915919 1279915896#0 1279915896#1 1282715056 696168834#0 696168834#1 696169688 696169687#1 695446625#0 695446625#1 695446625#3 695490087#1 695490086#1 295449625#0 295449625#1 695496042#0 695496042#1 695496042#2 695496040 1280219250 694767769 695496039#0 695496039#1 695496039#2" />
    </vehicle>
    <vehicle id="ma_45" type="motorbike" depart="19.80">
        <route edges="1210918872#0 1210918872#1 1282340717#2 1282340719 1034027336#0 910359052#0 910359052#3 910359052#5 910359052#7 910359052#8 910359052#9 697200467#0 697200467#1 697200467#4 697200467#4-AddedOffRampEdge 697200467#7 697200467#8 697200467#9 697200467#10 697200467#11 1280089201#2 1280219265 694601892 695295267#0" />
    </vehicle>
    <vehicle id="tx_5" type="taxi" depart="20.00">
        <route edges="-676438752#3 -676438752#1 -321069049#2 -321069049#0 321069035#1 641487801 295408470#1 295408470#2 673632547 160628085#2 1280089222 1280089201#0 1280089201#1 1280089201#2 -694715298 -694715297 -39368999#21 -39368999#20 -39368999#16 -39368999#15 -39368999#14 695544823 -372220804#34 -372220804#33 -372220804#32 -118570159#16 -118570159#15 -118570159#14 -118570159#13 -118570159#11 -118570159#10 -118570159#9 -118570159#8 -118570159#7 -118570159#6 -118570159#5 -118570159#3 -118570159#2 -35950868#16 -35950868#15 118573603#0 -828678860#4 -828678860#3" />
    </vehicle>
    <vehicle id="mx_23" type="motorbike2" depart="20.01">
        <route edges="693885804#0 693885804#2 779462187#0 779462187#1 199383481-AddedOnRampEdge" />
    </vehicle>
    <vehicle id="dv_3" type="delivery" depart="20.01">
        <route edges="1280614504#0 1280614504#1 1280614504#2 1280219250 694767769 695496039#0 695496039#1 695496039#2 695496039#3 695502614 695502613 695502611#0 695502611#1 695504114#0 695504114#1 695504114#4 295449627#0 295449627#2 295449627#3 295449627#4 295449627#5 698046188#1 1279915897 695510008#0 695510008#1 695510008#2 35950868#0 35950868#1 35950868#3 35950868#4 35950868#5 35950868#6 35950868#7 35950868#8 35950868#9 35950868#10 35950868#11 35950868#13 35950868#14 35950868#15 35950868#16 35950868#17 35950868#18 35950868#19 35950868#20 35950868#21 35950868#22 -562701506#1 -562701506#0 408161670#23 408161670#24 -118573597 765351891#4 118555049#0 118555049#1 118575969#0 118575969#1 673151144#0 673151144#1 1352258992 964171425#3 964171425#4 964171425#5 964171425#6" />
    </vehicle>
    <vehicle id="ma_46" type="motorbike" depart="20.24">
        <route edges="-295449629#2 -295449629#1 -295449629#0 -118566872#16 -118566872#12 295449627#0 295449627#2 295449627#3 295449627#4 295449627#5 698046188#1 1279915897 695510008#0 695510008#1 695510008#2 35950868#0 35950868#1 35950868#3 35950868#4 35950868#5 35950868#6 35950868#7 35950868#8 35950868#9 35950868#10 35950868#11 35950868#13 35950868#14 35950868#15 35950868#16 35950868#17 35950868#18 35950868#19 35950868#20 35950868#21 35950868#22 35950868#23 35950868#24 35950868#26 35950868#27 35950868#29 35950868#30 35950868#31 35950868#32 35950868#34 35950868#36 35950868#37 35950868#38 -35950882#14 -35950882#13 -35950882#10 -35950882#9 -35950882#8 -894924691 -372467087#1 -372467084#2 372467085#0 372467085#1" />
    </vehicle>
    <vehicle id="mx_24" type="motorbike2" depart="20.88">
        <route edges="35950864#28 118575974#1 -35950959#11 118570183#0 118570183#1 118570183#2 118570183#3 39368999#3 118566872#0 118566872#1 118566872#2 118575976#0 118575976#1 372220804#31 -118570159#16 -118570159#15 -118570159#14 -118570159#13 -118570159#11 -118570159#10 -118570159#9 -118570159#8 -118570159#7 -118570159#6 -118570159#5 -118570159#3 -118570159#2 35950868#17 35950868#18 35950868#19 35950868#20 35950868#21 35950868#22 -562701506#1 -562701506#0 408161670#23 408161670#24 -118573597 -765351891#3 118672299#0 118672299#1 118672299#2 118672299#3 694775628#2" />
    </vehicle>
    <vehicle id="ma_49" type="motorbike" depart="21.56">
        <route edges="302751286#2 -302739242#0 -118575969#1 -118575969#0 -118555049#1 -118555049#0 1279915898#0 1279915898#2 1279915898#5 1279915898#6 1279915898#9 302751295#0 302751295#1 302751295#2 302751295#3 302751295#4 302751295#5 302751295#6 302751295#7 302751295#8 302751295#9 302751295#10 302751295#11 302751295#12 302751295#13 302751295#15 35950864#0 35950864#3 35950864#6 35950864#8 35950864#14 35950864#17 35950864#18 35950864#19 118674615#0 695295265#0" />
    </vehicle>
    <vehicle id="mx_25" type="motorbike2" depart="21.75">
        <route edges="828678750#0 696755556#1 695040552#0 695040552#1 1279915919 1279915896#0 1279915896#1 1282715056 1282340752 1279915897 695510008#0 695510008#1 695510008#2 35950868#0 35950868#1 35950868#3 35950868#4 35950868#5 35950868#6 35950868#7 35950868#8 35950868#9 35950868#10 35950868#11 35950868#13 35950868#14 35950868#15 35950868#16 35950868#17 35950868#18 35950868#19 35950868#20 35950868#21 35950868#22 -562701506#1 -562701506#0 408161670#23 408161670#24 -118573597 765351891#4 118555049#0 118555049#1 118575969#0 118575969#1 302739242#0 302739242#1 964171425#0" />
    </vehicle>
    <vehicle id="ma_51" type="motorbike" depart="22.44">
        <route edges="828724755#1 -828724755#1 -118672607#4 -118672607#3 -118672607#2 -118672607#1 -118672607#0 -35950868#25 -35950868#23 -35950868#22 -35950868#21 -35950868#20 -35950868#19 -35950868#18 -35950868#17 -35950868#16 -35950868#15 -35950868#14 -35950868#13 -35950868#12 -35950868#10 -35950868#9 -35950868#8 -35950868#7 -35950868#6 -35950868#5 -35950868#4 -35950868#3 -35950868#2 -35950868#0 -695510008#3 -695510008#1 -695510008#0 1282340739 695510007#0 695510007#1 295128790#0 295128790#3 295128790#4 295128790#10 693885804#0" />
    </vehicle>
    <vehicle id="ma_52" type="motorbike" depart="22.88">