<?xml version="1.0" encoding="UTF-8"?>

<!-- generated on 2026-03-22 02:06:51.840222 by Eclipse SUMO randomTrips.py v1_26_0+0000-fa7df22d7f1
<configuration>
    <net-file value="D:\WeSaveTime-ASEAN\sumo\danang\danang.net.xml"/>
    <additional-files value="D:\WeSaveTime-ASEAN\sumo\danang\danang.vtypes.xml"/>
    <weights-prefix value="D:\WeSaveTime-ASEAN\sumo\danang\danang.weights"/>
    <output-trip-file value="D:\WeSaveTime-ASEAN\sumo\danang\danang.bs_.trips.xml"/>
    <prefix value="bs_"/>
    <trip-attributes value="type=&quot;bus&quot;"/>
    <fringe-factor value="10"/>
    <random value="True"/>
    <remove-loops value="True"/>
    <end value="600.0"/>
    <period value="9.23"/>
</configuration>
-->

<routes xmlns:xsi="http://www.w3.org/2001/XMLSchema-instance" xsi:noNamespaceSchemaLocation="http://sumo.dlr.de/xsd/routes_file.xsd">
    <trip id="bs_0" depart="0.00" from="-828724757#0" to="-35950883#0" type="bus"/>
    <trip id="bs_1" depart="9.23" from="704621733#0" to="828724754#0" type="bus"/>
    <trip id="bs_2" depart="18.46" from="118570175" to="372466116#1" type="bus"/>
    <trip id="bs_3" depart="27.69" from="-1379125025" to="295408465#0" type="bus"/>
    <trip id="bs_4" depart="36.92" from="910359052#0" to="696169687#1" type="bus"/>
    <trip id="bs_5" depart="46.15" from="694830397" to="-689583178#2" type="bus"/>
    <trip id="bs_6" depart="55.38" from="828678816#0" to="693416739#0" type="bus"/>
    <trip id="bs_7" depart="64.61" from="-118673919#2" to="302751284#3" type="bus"/>
    <trip id="bs_8" depart="73.84" from="295408452#1" to="-676458408" type="bus"/>
    <trip id="bs_9" depart="83.07" from="1282340731" to="697200467#4-AddedOffRampEdge" type="bus"/>
    <trip id="bs_10" depart="92.30" from="695496040" to="256668722" type="bus"/>
    <trip id="bs_11" depart="101.53" from="642098832#1" to="295408452#7" type="bus"/>
    <trip id="bs_12" depart="110.76" from="39368999#17" to="-828724790#1" type="bus"/>
    <trip id="bs_13" depart="119.99" from="-828724754#2" to="964171425#4" type="bus"/>
    <trip id="bs_14" depart="129.22" from="828724705#0" to="118672606#1" type="bus"/>
    <trip id="bs_15" depart="138.45" from="295408452#7" to="695295268" type="bus"/>
    <trip id="bs_16" depart="147.68" from="695510007#0" to="1391330070#6" type="bus"/>
    <trip id="bs_17" depart="156.91" from="295408462#12" to="408161672#1" type="bus"/>
    <trip id="bs_18" depart="166.14" from="1282340735" to="910359052#3" type="bus"/>
    <trip id="bs_19" depart="175.37" from="910359052#8" to="1034028675#0" type="bus"/>
    <trip id="bs_20" depart="184.60" from="-828678793#1" to="295408452#16-AddedOffRampEdge" type="bus"/>
    <trip id="bs_21" depart="193.83" from="695025562#1" to="-343236557#1" type="bus"/>
    <trip id="bs_22" depart="203.06" from="697200467#4" to="562634342" type="bus"/>
    <trip id="bs_23" depart="212.29" from="-39368999#8" to="1282340736" type="bus"/>
    <trip id="bs_24" depart="221.52" from="-118673947#1" to="372464937#5" type="bus"/>
    <trip id="bs_25" depart="230.75" from="-118570149#5" to="910359052#5" type="bus"/>
    <trip id="bs_26" depart="239.98" from="1282340772" to="673151142#4" type="bus"/>
    <trip id="bs_27" depart="249.21" from="-828678814#1" to="1280219259#0" type="bus"/>
    <trip id="bs_28" depart="258.44" from="695295268" to="160628085#0" type="bus"/>
    <trip id="bs_29" depart="267.67" from="408161670#28" to="-118575965" type="bus"/>
    <trip id="bs_30" depart="276.90" from="295408452#6" to="408161670#28" type="bus"/>
    <trip id="bs_31" depart="286.13" from="-828724726#1" to="295408468#5" type="bus"/>
    <trip id="bs_32" depart="295.36" from="698936203#7" to="828678749#1" type="bus"/>
    <trip id="bs_33" depart="304.59" from="-643237805" to="1391330070#12" type="bus"/>
    <trip id="bs_34" depart="313.82" from="295408452#16-AddedOffRampEdge" to="-35950864#22" type="bus"/>
    <trip id="bs_35" depart="323.05" from="673151142#4" to="695504114#1" type="bus"/>
    <trip id="bs_36" depart="332.28" from="295408463#1" to="964171425#0" type="bus"/>
    <trip id="bs_37" depart="341.51" from="-302751295#10" to="562701506#0" type="bus"/>
    <trip id="bs_38" depart="350.74" from="695025562#1" to="295449627#4" type="bus"/>
    <trip id="bs_39" depart="359.97" from="694601892" to="779462187#0" type="bus"/>
    <trip id="bs_40" depart="369.20" from="695025559" to="-35950850#20" type="bus"/>
    <trip id="bs_41" depart="378.43" from="1034028676#1" to="828678749#1" type="bus"/>
    <trip id="bs_42" depart="387.66" from="1392384120#0" to="-35950868#8" type="bus"/>
    <trip id="bs_43" depart="396.89" from="160628085#0" to="-676438753#0" type="bus"/>
    <trip id="bs_44" depart="406.12" from="695040105#5" to="408161670#27" type="bus"/>
    <trip id="bs_45" depart="415.35" from="696168834#1" to="1282340737" type="bus"/>
    <trip id="bs_46" depart="424.58" from="1280614485" to="-118672619#4" type="bus"/>
    <trip id="bs_47" depart="433.81" from="695040552#1" to="295449627#0" type="bus"/>
    <trip id="bs_48" depart="443.04" from="828678822#1" to="295408461#5" type="bus"/>
    <trip id="bs_49" depart="452.27" from="624455965#0" to="1279915919" type="bus"/>
    <trip id="bs_50" depart="461.50" from="693416427" to="1279915921" type="bus"/>
    <trip id="bs_51" depart="470.73" from="295408468#0" to="372220804#4" type="bus"/>
    <trip id="bs_52" depart="479.96" from="295408463#0" to="118575976#1" type="bus"/>
    <trip id="bs_53" depart="489.19" from="964171425#2" to="160628085#0" type="bus"/>
    <trip id="bs_54" depart="498.42" from="295408452#16-AddedOffRampEdge" to="-641109023#3" type="bus"/>
    <trip id="bs_55" depart="507.65" from="-641097803" to="1280089222" type="bus"/>
    <trip id="bs_56" depart="516.88" from="641092778" to="302751282-AddedOnRampEdge" type="bus"/>
    <trip id="bs_57" depart="526.11" from="695025560#1" to="1279915921" type="bus"/>
    <trip id="bs_58" depart="535.34" from="295449627#5" to="-697869050#0" type="bus"/>
    <trip id="bs_59" depart="544.57" from="-562701502#3" to="698936203#3" type="bus"/>
    <trip id="bs_60" depart="553.80" from="408161670#24" to="964171425#3" type="bus"/>
    <trip id="bs_61" depart="563.03" from="-1447078728#0" to="698936203#3" type="bus"/>
    <trip id="bs_62" depart="572.26" from="295408477" to="694600787" type="bus"/>
    <trip id="bs_63" depart="581.49" from="828724795#1" to="1280219257#0" type="bus"/>
    <trip id="bs_64" depart="590.72" from="693330103#0" to="1418093030" type="bus"/>
    <trip id="bs_65" depart="599.95" from="964171425#0" to="-704621733#2" type="bus"/>
</routes>
