<?xml version="1.0" encoding="UTF-8"?>

<!-- generated on 2026-03-19T15:47:37.371720+07:00 by Eclipse SUMO polyconvert 1.26.0
<polyconvertConfiguration xmlns:xsi="http://www.w3.org/2001/XMLSchema-instance" xsi:noNamespaceSchemaLocation="http://sumo.dlr.de/xsd/polyconvertConfiguration.xsd">

    <input>
        <net-file value="D:\WeSaveTime-ASEAN\sumo\danang\danang.net.xml"/>
        <osm-files value="D:\WeSaveTime-ASEAN\sumo\danang\map.osm"/>
        <type-file value="D:\WeSaveTime-ASEAN\sumo\danang\typemap.xml"/>
    </input>

    <output>
        <output-file value="D:\WeSaveTime-ASEAN\sumo\danang\danang.poly.xml"/>
    </output>

    <report>
        <no-warnings value="true"/>
    </report>

</polyconvertConfiguration>
-->

<additional xmlns:xsi="http://www.w3.org/2001/XMLSchema-instance" xsi:noNamespaceSchemaLocation="http://sumo.dlr.de/xsd/additional_file.xsd">
    <location netOffset="-200697.44,-1775548.33" convBoundary="-1492.41,-3888.83,4274.55,6033.83" origBoundary="108.188834,16.006402,108.242896,16.096173" projParameter="+proj=utm +zone=49 +ellps=WGS84 +datum=WGS84 +units=m +no_defs"/>

    <poly id="1000446890" type="unknown" color="51,128,255" fill="0" layer="-1.00" shape="1062.369410,1568.839698 1001.066898,1460.358145 974.861214,1420.543208 828.285011,1197.856569 796.563981,1219.270529 787.591167,1228.118301 781.374279,1237.239031 777.787588,1248.428512 723.571094,1573.637009 632.281996,1640.695978 577.574224,1644.180346 455.352129,1624.266729 238.761726,1594.010395 233.926242,1645.927676 394.714614,1676.383208 210.855943,2096.040444 198.820640,2119.127777 187.008439,2134.947063 147.765497,2176.498186 137.745732,2192.614461 -27.489011,2537.977776 -37.230302,2553.281961 -48.672205,2563.193581 -62.251300,2569.479434 -76.115129,2572.922926 -90.307195,2574.266657 -830.612152,2546.670908 -1026.390135,2539.369994 -1016.895047,2344.932556 -1034.327607,2258.984400 -1046.749543,2229.007115 -1094.889344,2171.904760 -1120.205669,2157.651573 -1183.853421,2080.736389 -1215.264666,2030.085327 -1306.503648,1947.331836 -1247.183395,1762.151920 -1412.111671,1647.927202 -1293.202848,1347.689774 -1492.412829,1266.723089"/>
    <poly id="1015889454" type="building" color="153,128,102,153" fill="1" layer="-2.00" shape="2010.213664,2198.268242 2023.692540,2195.639766 2019.304370,2174.280411 2005.716925,2178.394342 2010.213664,2198.268242"/>
    <poly id="1034027336" type="unknown" color="51,128,255" fill="0" layer="-1.00" shape="2068.158939,878.528851 2063.371393,873.698111 2059.749461,867.943618 2057.447057,861.562322 2056.585673,854.829456 2057.191184,848.076913 2059.235478,841.604081 2062.615643,835.722432 2067.206757,830.699432 2072.765673,826.770908"/>
    <poly id="1034027337" type="unknown" color="51,128,255" fill="0" layer="-1.00" shape="1916.957977,844.354853 1918.348303,826.661140"/>
    <poly id="1034028675" type="unknown" color="51,128,255" fill="0" layer="-1.00" shape="1477.287966,776.392395 1514.314975,777.567028 1589.957389,787.348357 1649.552403,795.174865 1659.103180,797.427614 1671.844583,799.626435 1748.768659,809.966943 1760.330304,811.240312 1778.187386,813.193304 1896.708460,826.120988 1918.348303,826.661140 1981.963149,828.421048 1994.923241,829.365683 2052.369873,833.545291 2059.696176,832.837907 2067.206757,830.699432"/>
    <poly id="1034028676" type="unknown" color="51,128,255" fill="0" layer="-1.00" shape="2072.765673,826.770908 2076.828773,818.310798 2079.177363,810.571387 2081.094127,800.977239 2084.288110,761.254178 2088.829232,717.371159 2099.588780,621.309937 2107.454285,580.948369"/>
    <poly id="1034028677" type="unknown" color="51,128,255" fill="0" layer="-1.00" shape="2106.430732,879.920302 2101.792998,889.451274 2098.912010,898.216687 2097.577456,908.102038 2094.908908,957.452939 2088.626480,1091.052370 2082.969772,1126.799491"/>
    <poly id="1034028678" type="unknown" color="51,128,255" fill="0" layer="-1.00" shape="2070.267121,1126.670901 2067.346811,1090.197178 2075.175135,916.974275 2074.728307,904.421693 2072.627813,891.536909 2068.158939,878.528851"/>
    <poly id="1044133976" type="unknown" color="51,128,255" fill="0" layer="-1.00" shape="1607.331503,2266.386387 1822.874591,2199.577482 1766.546606,1895.882002"/>
    <poly id="1044133977" type="unknown" color="51,128,255" fill="0" layer="-1.00" shape="1766.546606,1895.882002 1818.105049,1896.385353 1819.515331,1887.373821 1899.873177,1878.586506 1903.277789,1904.045601 1904.945963,1908.652383 1891.076259,1910.898540 1889.191718,1907.723289 1882.327205,1910.096858 1869.506768,1913.923680 1870.840975,1927.150992 1868.329502,1928.325412 1870.829264,1943.818438 1879.541422,1941.874106 1883.342628,1951.413661 1887.039576,1953.191315 1897.818130,1951.219235 1904.897374,1964.834519 1911.531998,1997.171861 1890.675183,1999.833036 1893.987156,2016.799150 1900.132257,2046.175071 1908.394695,2045.831527 1914.548996,2075.893950 1929.477217,2075.926016 1931.287100,2090.287622 1940.479513,2090.618223 1943.313074,2123.792910 2069.402334,2125.876280 2198.902757,2191.449474 2276.530079,2142.056296 2315.786514,2156.347466 2600.504352,2161.932431"/>
    <poly id="1044133979" type="unknown" color="51,128,255" fill="0" layer="-1.00" shape="1766.546606,1895.882002 1755.936998,1838.702329 1656.559410,1837.069844 1542.421270,1831.173190 1542.344342,1936.150725 1438.462894,1935.631945 1391.149141,1933.843095 1353.367854,1927.407618 1264.961171,1914.222431 1204.535055,1908.900440 1139.019026,1904.931805"/>
    <poly id="1044133980" type="unknown" color="51,128,255" fill="0" layer="-1.00" shape="300.691058,4142.960251 543.357275,3883.510560 615.377199,3823.166174 629.977292,3839.415010 676.791442,3799.711246 695.690300,3787.772259 716.079209,3771.195015 735.439149,3749.780952 752.517129,3765.564499 768.219141,3780.159481 771.158640,3779.776492 776.247331,3776.784085 797.499604,3762.288399 801.934027,3754.454100 802.374827,3744.270480 797.702067,3734.443810 765.205693,3691.757385 781.540480,3666.751702 781.145739,3662.891950 775.535578,3657.397074 773.686058,3652.061867 775.136131,3647.634557 795.387564,3617.681011 1050.454869,3825.246869 1110.420401,3510.016679 1130.329894,3405.391509 1132.910080,3390.261932 1171.457589,3164.461195 1212.345795,2946.193189 1260.201731,2701.341001 1281.013554,2634.147606 1241.043981,2438.874527 1221.439748,2339.687940 1214.271693,2302.008750"/>
    <poly id="1044133982" type="unknown" color="51,128,255" fill="0" layer="-1.00" shape="1062.369410,1568.839698 1102.763596,1577.598526 1154.638117,1590.366950 1177.242502,1596.574573 1205.672875,1600.422420 1288.829576,1632.416560 1309.007836,1638.191814 1330.674325,1643.149685 1347.464441,1643.842991 1361.797848,1641.822845 1393.706940,1631.227074 1402.405531,1629.061259 1402.951326,1715.812717 1545.099038,1717.323137 1545.164509,1679.978582 1731.753484,1693.418171 1733.372355,1701.525190 1828.589282,1725.817293 1856.466792,1732.386629 1874.857279,1735.041178 1882.645463,1734.460373 1901.059892,1726.139687 1888.130653,1697.153880 1884.797258,1685.769652 1922.361256,1676.815295 2007.034226,1651.978854 2093.688436,1638.312590 2097.956271,1670.659560 2104.190033,1699.480577 2111.901467,1729.090210 2123.774778,1766.396202 2256.927686,1727.321679 2602.694663,1719.607857"/>
    <poly id="1044356574" type="unknown" color="51,128,255" fill="0" layer="-1.00" shape="1214.271693,2302.008750 1242.549572,2299.368783 1241.901648,2294.194561 1293.415276,2296.192217 1327.180769,2299.480959 1349.818631,2301.867417 1428.153877,2321.932640 1607.331503,2266.386387"/>
    <poly id="1044356575" type="unknown" color="51,128,255" fill="0" layer="-1.00" shape="1698.848572,2676.733568 1643.677337,2581.834888 1637.228947,2574.523746 1629.034685,2568.775458 1639.429558,2557.405987 1663.534872,2549.495718 1657.217817,2454.792858 1619.557276,2407.888747 1609.338642,2408.480222 1605.934872,2384.704448 1640.862439,2374.887789 1607.331503,2266.386387"/>
    <poly id="1044435586" type="unknown" color="51,128,255" fill="1" layer="-1.00" shape="775.138984,2026.761168 773.461269,2040.527500 770.673353,2063.290390 723.950008,2057.641038 725.561254,2044.506851 727.789353,2026.292128 732.899218,2021.660444 775.138984,2026.761168"/>
    <poly id="1044435587" type="building" color="153,128,102,153" fill="1" layer="-2.00" shape="725.561254,2044.506851 742.465894,2046.560294 758.834144,2048.543460 761.483495,2048.862129 762.680802,2039.177764 773.461269,2040.527500 770.673353,2063.290390 723.950008,2057.641038 725.561254,2044.506851"/>
    <poly id="1044435588" type="building" color="153,128,102,153" fill="1" layer="-2.00" shape="747.426966,2023.745945 773.032136,2026.966768 775.048230,2028.766913 773.461269,2040.527500 762.680802,2039.177764 760.031301,2038.848022 743.651590,2036.809636 745.151091,2024.917327 747.426966,2023.745945"/>
    <poly id="1044435589" type="building" color="153,128,102,153" fill="1" layer="-2.00" shape="758.834144,2048.543460 760.031301,2038.848022 743.651590,2036.809636 742.465894,2046.560294 758.834144,2048.543460"/>
    <poly id="1044435591" type="building" color="153,128,102,153" fill="1" layer="-2.00" shape="1372.605138,2046.323141 1385.248630,2047.659173 1382.584621,2072.513319 1369.930435,2071.177435 1372.605138,2046.323141"/>
    <poly id="1044435592" type="unknown" color="51,128,255" fill="1" layer="-1.00" shape="1369.930435,2071.177435 1382.584621,2072.513319 1385.248630,2047.659173 1372.605138,2046.323141 1369.930435,2071.177435"/>
    <poly id="1046770985" type="building" color="153,128,102,153" fill="1" layer="-2.00" shape="763.349880,2068.151257 762.223727,2084.700983 765.189797,2084.683140 766.619773,2068.428336 763.349880,2068.151257"/>
    <poly id="1046770986" type="building" color="153,128,102,153" fill="1" layer="-2.00" shape="848.889439,2078.360724 847.607610,2090.515876 852.369018,2091.016505 853.650700,2078.850281 848.889439,2078.360724"/>
    <poly id="1046770987" type="building" color="153,128,102,153" fill="1" layer="-2.00" shape="834.457849,2077.049098 832.567815,2094.926998 836.921769,2095.388817 838.822513,2077.510774 834.457849,2077.049098"/>
    <poly id="1046770988" type="building" color="153,128,102,153" fill="1" layer="-2.00" shape="776.397372,2070.057385 775.472590,2087.246726 779.791293,2087.476441 780.705372,2070.287245 776.397372,2070.057385"/>
    <poly id="1046770989" type="building" color="153,128,102,153" fill="1" layer="-2.00" shape="798.059365,2072.312519 795.848604,2090.227975 800.621767,2090.805957 802.832532,2072.890502 798.059365,2072.312519"/>
    <poly id="1046770990" type="building" color="153,128,102,153" fill="1" layer="-2.00" shape="860.274903,2081.695789 859.464119,2089.868772 876.995915,2091.581615 877.721687,2084.251457 867.996190,2083.308294 868.081059,2082.454399 860.274903,2081.695789"/>
    <poly id="1046770991" type="building" color="153,128,102,153" fill="1" layer="-2.00" shape="792.777566,2070.545325 791.127697,2087.965933 795.309302,2088.352545 796.959323,2070.943011 792.777566,2070.545325"/>
    <poly id="1046770992" type="building" color="153,128,102,153" fill="1" layer="-2.00" shape="808.895692,2073.041332 807.245514,2090.439791 811.577310,2090.846531 813.227492,2073.448072 808.895692,2073.041332"/>
    <poly id="1046770993" type="building" color="153,128,102,153" fill="1" layer="-2.00" shape="816.672463,2074.797044 815.125872,2091.142008 819.918805,2091.597906 821.465249,2075.241870 816.672463,2074.797044"/>
    <poly id="1046770994" type="building" color="153,128,102,153" fill="1" layer="-2.00" shape="896.698743,1949.260925 889.461199,1948.583232 888.870085,1954.781954 896.107627,1955.459646 896.698743,1949.260925"/>
    <poly id="1046770998" type="building" color="153,128,102,153" fill="1" layer="-2.00" shape="792.432774,1938.528401 790.782130,1955.893642 794.106020,1956.203224 795.745960,1938.838127 792.432774,1938.528401"/>
    <poly id="1046770999" type="building" color="153,128,102,153" fill="1" layer="-2.00" shape="781.632897,1936.536576 779.823533,1955.631614 784.337671,1956.058044 786.147039,1936.963008 781.632897,1936.536576"/>
    <poly id="1046771000" type="building" color="153,128,102,153" fill="1" layer="-2.00" shape="766.264718,1936.455822 765.758802,1941.822801 778.421775,1943.003197 778.927694,1937.636218 766.264718,1936.455822"/>
    <poly id="1046773357" type="building" color="153,128,102,153" fill="1" layer="-2.00" shape="785.189548,1954.905865 790.442158,1955.300191 791.828673,1937.406925 786.575910,1937.001525 785.189548,1954.905865"/>
    <poly id="1046773358" type="building" color="153,128,102,153" fill="1" layer="-2.00" shape="836.794111,2073.207907 855.485836,2075.170893 855.865153,2071.533279 837.184131,2069.570147 836.794111,2073.207907"/>
    <poly id="1046773359" type="building" color="153,128,102,153" fill="1" layer="-2.00" shape="766.619773,2068.428336 765.189797,2084.683140 770.839872,2085.171770 772.269851,2068.916966 766.619773,2068.428336"/>
    <poly id="1046773360" type="building" color="153,128,102,153" fill="1" layer="-2.00" shape="908.925179,2100.022121 918.776310,2100.753188 919.175483,2095.409805 909.324499,2094.689810 908.925179,2100.022121"/>
    <poly id="1046773361" type="building" color="153,128,102,153" fill="1" layer="-2.00" shape="639.562567,2012.187803 636.938523,2032.800027 646.936071,2034.060591 649.559974,2013.437297 639.562567,2012.187803"/>
    <poly id="1046773362" type="building" color="153,128,102,153" fill="1" layer="-2.00" shape="575.119487,1929.797341 567.508975,1953.865718 572.369677,1955.372753 579.969635,1931.315596 575.119487,1929.797341"/>
    <poly id="1046773363" type="building" color="153,128,102,153" fill="1" layer="-2.00" shape="634.714295,1971.110614 639.699884,1972.350185 645.004044,1951.159154 640.029308,1949.930510 634.714295,1971.110614"/>
    <poly id="1046773364" type="building" color="153,128,102,153" fill="1" layer="-2.00" shape="640.029308,1949.930510 636.010765,1948.932613 630.706611,1970.123647 634.714295,1971.110614 640.029308,1949.930510"/>
    <poly id="1046773365" type="building" color="153,128,102,153" fill="1" layer="-2.00" shape="528.719788,1914.830128 522.297027,1936.446062 531.199049,1939.050332 537.621967,1917.445475 528.719788,1914.830128"/>
    <poly id="1046773366" type="building" color="153,128,102,153" fill="1" layer="-2.00" shape="603.488738,1964.056374 624.529773,1969.487106 631.259928,1946.837122 610.361154,1940.839650 603.488738,1964.056374"/>
    <poly id="1046775777" type="building" color="153,128,102,153" fill="1" layer="-2.00" shape="1494.653765,2030.550006 1490.609102,2079.354995 1511.599778,2081.077181 1515.644486,2032.272204 1494.653765,2030.550006"/>
    <poly id="1046775778" type="building" color="153,128,102,153" fill="1" layer="-2.00" shape="1353.072574,2049.509680 1351.431294,2070.784033 1355.215235,2071.065354 1356.867375,2049.801930 1353.072574,2049.509680"/>
    <poly id="1046775779" type="building" color="153,128,102,153" fill="1" layer="-2.00" shape="1295.616684,2039.673378 1291.296504,2039.332835 1289.503495,2062.060026 1293.812964,2062.400712 1295.616684,2039.673378"/>
    <poly id="1046775780" type="building" color="153,128,102,153" fill="1" layer="-2.00" shape="1293.812964,2062.400712 1298.293889,2062.750165 1300.086907,2040.022976 1295.616684,2039.673378 1293.812964,2062.400712"/>
    <poly id="1046775781" type="building" color="153,128,102,153" fill="1" layer="-2.00" shape="1302.656891,2063.090132 1308.777882,2063.561485 1310.570910,2040.834298 1304.449913,2040.362944 1302.656891,2063.090132"/>
    <poly id="1046775782" type="building" color="153,128,102,153" fill="1" layer="-2.00" shape="1298.293889,2062.750165 1302.656891,2063.090132 1304.449913,2040.362944 1300.086907,2040.022976 1298.293889,2062.750165"/>
    <poly id="1046775783" type="building" color="153,128,102,153" fill="1" layer="-2.00" shape="1276.305109,2038.593265 1275.397548,2057.886470 1285.802277,2058.377681 1286.720554,2039.084333 1276.305109,2038.593265"/>
    <poly id="1046775784" type="building" color="153,128,102,153" fill="1" layer="-2.00" shape="1207.522049,2026.572888 1204.954115,2050.595195 1214.455490,2051.596895 1217.023285,2027.563518 1207.522049,2026.572888"/>
    <poly id="1046775785" type="building" color="153,128,102,153" fill="1" layer="-2.00" shape="1360.344300,2102.869198 1357.824844,2126.525346 1367.465505,2127.536305 1369.984970,2103.880160 1360.344300,2102.869198"/>
    <poly id="1046775786" type="building" color="153,128,102,153" fill="1" layer="-2.00" shape="1440.661177,2126.905866 1467.207878,2130.092635 1467.911119,2124.257910 1441.364560,2121.082212 1440.661177,2126.905866"/>
    <poly id="1046775787" type="building" color="153,128,102,153" fill="1" layer="-2.00" shape="1409.361054,2052.971753 1406.439741,2077.009829 1416.082354,2078.164757 1419.003676,2054.126684 1409.361054,2052.971753"/>
    <poly id="1046782302" type="building" color="153,128,102,153" fill="1" layer="-2.00" shape="1934.313611,2180.881557 1937.022843,2189.649482 1977.794818,2177.229928 1975.096309,2168.461857 1934.313611,2180.881557"/>
    <poly id="1046782303" type="building" color="153,128,102,153" fill="1" layer="-2.00" shape="2062.354200,2104.995617 2079.574645,2105.074530 2080.495438,2076.345748 2072.473922,2076.287310 2063.273719,2088.138813 2062.354200,2104.995617"/>
    <poly id="1046782304" type="building" color="153,128,102,153" fill="1" layer="-2.00" shape="2070.852015,2160.476002 2075.626126,2160.334389 2075.155716,2143.640215 2070.392160,2143.770612 2070.852015,2160.476002"/>
    <poly id="1046782305" type="building" color="153,128,102,153" fill="1" layer="-2.00" shape="2080.472359,2159.981391 2084.486597,2159.872129 2084.090532,2145.524772 2080.065585,2145.634177 2080.472359,2159.981391"/>
    <poly id="1046782306" type="building" color="153,128,102,153" fill="1" layer="-2.00" shape="2117.348187,2076.681669 2116.939625,2106.079115 2133.733729,2106.307763 2134.164524,2088.139655 2122.868381,2073.883227 2117.348187,2076.681669"/>
    <poly id="1046784456" type="building" color="153,128,102,153" fill="1" layer="-2.00" shape="2134.185235,1649.198141 2136.005783,1666.760153 2147.191777,1665.613349 2145.371239,1648.051338 2134.185235,1649.198141"/>
    <poly id="1046784457" type="building" color="153,128,102,153" fill="1" layer="-2.00" shape="2116.005233,1694.150192 2117.307691,1699.437441 2140.234956,1693.836137 2138.932504,1688.548887 2116.005233,1694.150192"/>
    <poly id="1046784458" type="building" color="153,128,102,153" fill="1" layer="-2.00" shape="2129.749820,1572.433266 2130.278775,1583.921586 2149.220464,1582.958668 2148.691519,1571.470349 2129.749820,1572.433266"/>
    <poly id="1046784459" type="building" color="153,128,102,153" fill="1" layer="-2.00" shape="2170.509783,1531.087650 2171.749435,1549.255480 2222.374495,1548.786794 2221.801712,1529.236777 2170.509783,1531.087650"/>
    <poly id="1046784460" type="building" color="153,128,102,153" fill="1" layer="-2.00" shape="2134.313803,1630.048460 2135.477872,1642.580345 2154.398403,1640.842485 2153.245201,1628.321531 2134.313803,1630.048460"/>
    <poly id="1046784461" type="building" color="153,128,102,153" fill="1" layer="-2.00" shape="2130.151893,1635.121091 2108.575011,1636.817094 2109.955260,1654.285344 2131.542831,1652.589196 2130.151893,1635.121091"/>
    <poly id="1046784462" type="building" color="153,128,102,153" fill="1" layer="-2.00" shape="2129.632518,1594.019204 2149.446953,1593.454333 2149.327299,1589.325120 2129.523716,1589.900918 2129.632518,1594.019204"/>
    <poly id="1046784463" type="building" color="153,128,102,153" fill="1" layer="-2.00" shape="2129.941521,1547.612552 2146.936367,1546.808654 2146.082590,1528.668869 2129.087581,1529.461692 2129.941521,1547.612552"/>
    <poly id="1046784464" type="building" color="153,128,102,153" fill="1" layer="-2.00" shape="2128.909278,1552.886829 2129.126030,1557.867483 2147.930483,1557.050379 2147.713736,1552.069725 2128.909278,1552.886829"/>
    <poly id="1046784465" type="building" color="153,128,102,153" fill="1" layer="-2.00" shape="2131.011438,1597.024063 2131.389527,1602.855296 2150.167179,1601.639861 2149.789244,1595.819702 2131.011438,1597.024063"/>
    <poly id="1046784466" type="building" color="153,128,102,153" fill="1" layer="-2.00" shape="2167.391615,1719.319837 2152.170494,1722.215189 2155.831693,1741.280795 2171.052949,1738.396516 2167.391615,1719.319837"/>
    <poly id="1046784467" type="building" color="153,128,102,153" fill="1" layer="-2.00" shape="2135.440294,1675.693856 2112.797497,1680.150661 2113.876747,1685.562726 2136.519539,1681.105920 2135.440294,1675.693856"/>
    <poly id="1046784468" type="building" color="153,128,102,153" fill="1" layer="-2.00" shape="2141.020225,1673.348694 2141.813810,1678.221938 2159.391954,1675.405705 2158.609080,1670.532318 2141.020225,1673.348694"/>
    <poly id="1046785390" type="building" color="153,128,102,153" fill="1" layer="-2.00" shape="1887.325377,2086.082794 1887.028324,2106.220426 1892.201573,2106.294906 1892.498482,2086.146202 1887.325377,2086.082794"/>
    <poly id="1046785391" type="building" color="153,128,102,153" fill="1" layer="-2.00" shape="1837.545769,2088.822473 1837.584900,2093.329315 1858.346764,2093.172212 1858.318195,2088.654154 1837.545769,2088.822473"/>
    <poly id="1046785392" type="building" color="153,128,102,153" fill="1" layer="-2.00" shape="1836.525539,2094.185219 1836.694069,2103.541004 1856.896351,2103.180998 1856.727830,2093.825214 1836.525539,2094.185219"/>
    <poly id="1046785393" type="building" color="153,128,102,153" fill="1" layer="-2.00" shape="1937.684035,2092.970360 1937.910518,2105.847085 1947.760044,2105.670505 1947.533567,2092.793780 1937.684035,2092.970360"/>
    <poly id="1046785394" type="building" color="153,128,102,153" fill="1" layer="-2.00" shape="1899.007577,2101.961910 1909.553041,2101.775965 1909.251142,2084.880167 1898.705670,2085.066111 1899.007577,2101.961910"/>
    <poly id="1046785395" type="building" color="153,128,102,153" fill="1" layer="-2.00" shape="1918.151237,2105.702710 1923.707248,2105.572713 1923.287436,2087.870054 1917.731421,2088.000050 1917.837453,2092.705335 1918.151237,2105.702710"/>
    <poly id="1046785396" type="building" color="153,128,102,153" fill="1" layer="-2.00" shape="1912.702888,2105.875561 1918.151237,2105.702710 1917.837453,2092.705335 1912.431184,2092.822247 1912.702888,2105.875561"/>
    <poly id="1049947220" type="building" color="153,128,102,153" fill="1" layer="-2.00" shape="685.502426,1412.514849 727.920794,1436.340607 734.720692,1424.399013 692.291605,1400.573384 685.502426,1412.514849"/>
    <poly id="1050167425" type="building" color="153,128,102,153" fill="1" layer="-2.00" shape="2112.013139,1460.485713 2120.160090,1460.298881 2119.904756,1449.249872 2111.757801,1449.436704 2112.013139,1460.485713"/>
    <poly id="1050167426" type="building" color="153,128,102,153" fill="1" layer="-2.00" shape="2099.970048,1472.785050 2121.038497,1472.291943 2120.794453,1462.084452 2099.736702,1462.577413 2099.970048,1472.785050"/>
    <poly id="1050167427" type="building" color="153,128,102,153" fill="1" layer="-2.00" shape="2101.594211,1486.883353 2119.815045,1486.461676 2119.520467,1474.084244 2101.310478,1474.516848 2101.594211,1486.883353"/>
    <poly id="1050167428" type="building" color="153,128,102,153" fill="1" layer="-2.00" shape="2106.504083,1499.243156 2120.121372,1498.916473 2119.830061,1486.782638 2106.212765,1487.109320 2106.504083,1499.243156"/>
    <poly id="1050167429" type="building" color="153,128,102,153" fill="1" layer="-2.00" shape="2031.554980,1511.378918 2056.670028,1510.787135 2056.021640,1483.220109 2030.906412,1483.800815 2031.554980,1511.378918"/>
    <poly id="1050167430" type="building" color="153,128,102,153" fill="1" layer="-2.00" shape="1992.031587,1568.245885 1997.202430,1568.132176 1997.102378,1563.869799 1991.931534,1563.983509 1992.031587,1568.245885"/>
    <poly id="1050167431" type="building" color="153,128,102,153" fill="1" layer="-2.00" shape="1997.512803,1564.927451 2001.473914,1564.841056 2001.285258,1557.168894 1997.335001,1557.266218 1997.512803,1564.927451"/>
    <poly id="1050167432" type="building" color="153,128,102,153" fill="1" layer="-2.00" shape="2000.915025,1550.329764 2006.406930,1550.200673 2005.974626,1531.556859 2000.472008,1531.686093 2000.915025,1550.329764"/>
    <poly id="1050167433" type="building" color="153,128,102,153" fill="1" layer="-2.00" shape="2010.097696,1549.918565 2018.908299,1549.711708 2018.454301,1530.248666 2009.643689,1530.455523 2010.097696,1549.918565"/>
    <poly id="1050167434" type="building" color="153,128,102,153" fill="1" layer="-2.00" shape="2041.480099,1534.369456 2050.033741,1534.166061 2049.852689,1526.261233 2041.299044,1526.464628 2041.480099,1534.369456"/>
    <poly id="1050167435" type="building" color="153,128,102,153" fill="1" layer="-2.00" shape="2055.103537,1607.112794 2069.459687,1606.787227 2069.294390,1600.056095 2054.938384,1600.392734 2055.103537,1607.112794"/>
    <poly id="1050167436" type="building" color="153,128,102,153" fill="1" layer="-2.00" shape="2048.008858,1576.387427 2048.092546,1580.229187 2070.178501,1579.755582 2070.094817,1575.913823 2048.008858,1576.387427"/>
    <poly id="1050167437" type="building" color="153,128,102,153" fill="1" layer="-2.00" shape="2048.432421,1571.243132 2070.604041,1570.768379 2070.472344,1564.944913 2048.311575,1565.430594 2048.432421,1571.243132"/>
    <poly id="1050167438" type="building" color="153,128,102,153" fill="1" layer="-2.00" shape="2062.085566,1549.652713 2069.686583,1549.484257 2069.326135,1532.999032 2061.724964,1533.156414 2062.085566,1549.652713"/>
    <poly id="1050167439" type="building" color="153,128,102,153" fill="1" layer="-2.00" shape="2048.373525,1555.684123 2048.455726,1559.415157 2068.957228,1558.973894 2068.875030,1555.242860 2048.373525,1555.684123"/>
    <poly id="1050167440" type="building" color="153,128,102,153" fill="1" layer="-2.00" shape="2101.572822,1613.776246 2125.071895,1613.272652 2124.438616,1583.634487 2100.939512,1584.138076 2101.572822,1613.776246"/>
    <poly id="1050167441" type="building" color="153,128,102,153" fill="1" layer="-2.00" shape="2102.469872,1582.467427 2124.748392,1581.980217 2124.639599,1577.064562 2121.374442,1577.141597 2121.204715,1569.280920 2124.726987,1569.211509 2124.779155,1571.503248 2126.599179,1571.467753 2126.459921,1565.079586 2108.527792,1565.464171 2108.565391,1567.468166 2101.917149,1567.612749 2102.078116,1574.820145 2108.587167,1574.677429 2108.640080,1577.024531 2104.239991,1577.116798 2104.297658,1579.818224 2102.413542,1579.865655 2102.469872,1582.467427"/>
    <poly id="1050167442" type="building" color="153,128,102,153" fill="1" layer="-2.00" shape="2102.941639,1563.357436 2124.954596,1562.231467 2124.408079,1551.828691 2102.405968,1552.965587 2102.941639,1563.357436"/>
    <poly id="1050184714" type="building" color="153,128,102,153" fill="1" layer="-2.00" shape="685.033793,1449.244904 688.544571,1444.346851 686.219860,1442.694835 682.698524,1447.604107 685.033793,1449.244904"/>
    <poly id="1050184715" type="building" color="153,128,102,153" fill="1" layer="-2.00" shape="697.988844,1462.537097 701.133641,1457.500008 697.710393,1455.386589 694.554889,1460.423824 697.988844,1462.537097"/>
    <poly id="1050184716" type="building" color="153,128,102,153" fill="1" layer="-2.00" shape="778.554008,1402.245771 787.386830,1403.677189 787.901965,1400.580406 779.068992,1399.137914 778.554008,1402.245771"/>
    <poly id="1050184717" type="building" color="153,128,102,153" fill="1" layer="-2.00" shape="763.635374,1394.229407 772.640113,1395.702802 773.393115,1391.185251 764.377817,1389.723072 763.635374,1394.229407"/>
    <poly id="1050199647" type="building" color="153,128,102,153" fill="1" layer="-2.00" shape="843.432598,1279.295128 847.257970,1285.024578 860.781610,1276.137669 856.956091,1270.397144 843.432598,1279.295128"/>
    <poly id="1050199648" type="building" color="153,128,102,153" fill="1" layer="-2.00" shape="856.288215,1350.387577 860.354502,1356.512470 866.235217,1352.645694 862.168931,1346.520800 856.288215,1350.387577"/>
    <poly id="1050199649" type="building" color="153,128,102,153" fill="1" layer="-2.00" shape="861.976854,1333.853939 869.738191,1344.779767 895.061566,1327.029197 887.300090,1316.092289 861.976854,1333.853939"/>
    <poly id="1050199650" type="building" color="153,128,102,153" fill="1" layer="-2.00" shape="801.712916,1295.406142 804.799996,1298.797700 809.624708,1294.446779 806.537777,1291.066294 801.712916,1295.406142"/>
    <poly id="1050199651" type="building" color="153,128,102,153" fill="1" layer="-2.00" shape="813.417120,1311.240291 817.276374,1316.304798 838.744958,1300.178712 834.885559,1295.103129 813.417120,1311.240291"/>
    <poly id="1050215147" type="building" color="153,128,102,153" fill="1" layer="-2.00" shape="2159.581820,2535.355893 2162.931298,2535.189110 2162.714368,2530.994752 2159.364890,2531.161535 2159.581820,2535.355893"/>
    <poly id="1050215148" type="building" color="153,128,102,153" fill="1" layer="-2.00" shape="2160.151995,2551.506068 2164.817765,2551.277316 2164.626708,2547.414848 2159.961086,2547.654673 2160.151995,2551.506068"/>
    <poly id="1050215149" type="building" color="153,128,102,153" fill="1" layer="-2.00" shape="2156.134136,2547.351659 2162.651078,2547.020534 2162.343452,2540.856117 2155.815802,2541.187385 2156.134136,2547.351659"/>
    <poly id="1050215150" type="building" color="153,128,102,153" fill="1" layer="-2.00" shape="2118.887321,2563.068191 2123.278275,2567.095764 2142.712508,2565.395155 2142.185096,2559.610224 2146.612945,2559.207468 2144.056477,2531.499933 2146.526987,2531.267425 2145.700854,2522.374543 2114.962663,2525.179320 2118.887321,2563.068191"/>