<?xml version="1.0" encoding="UTF-8"?>

<!-- generated on 2026-03-22 01:29:16.140148 by Eclipse SUMO randomTrips.py v1_26_0+0000-fa7df22d7f1
<configuration>
    <net-file value="D:\WeSaveTime-ASEAN\sumo\danang\danang.net.xml"/>
    <additional-files value="D:\WeSaveTime-ASEAN\sumo\danang\danang.vtypes.xml"/>
    <weights-prefix value="D:\WeSaveTime-ASEAN\sumo\danang\danang.weights"/>
    <output-trip-file value="D:\WeSaveTime-ASEAN\sumo\danang\danang.tx_.trips.xml"/>
    <prefix value="tx_"/>
    <trip-attributes value="type=&quot;taxi&quot;"/>
    <fringe-factor value="5"/>
    <random value="True"/>
    <remove-loops value="True"/>
    <end value="600.0"/>
    <period value="7.5"/>
</configuration>
-->

<routes xmlns:xsi="http://www.w3.org/2001/XMLSchema-instance" xsi:noNamespaceSchemaLocation="http://sumo.dlr.de/xsd/routes_file.xsd">
    <trip id="tx_0" depart="0.00" from="561913437#0" to="35950864#23" type="taxi"/>
    <trip id="tx_1" depart="7.50" from="160628085#1" to="693885804#2" type="taxi"/>
    <trip id="tx_2" depart="15.00" from="-828678802#0" to="295408462#10" type="taxi"/>
    <trip id="tx_3" depart="22.50" from="-1282340733#0" to="295408461#10" type="taxi"/>
    <trip id="tx_4" depart="30.00" from="1280614504#2" to="-343236557#0" type="taxi"/>
    <trip id="tx_5" depart="37.50" from="-641423230" to="302751282-AddedOnRampEdge" type="taxi"/>
    <trip id="tx_6" depart="45.00" from="561971012" to="1034028675#2" type="taxi"/>
    <trip id="tx_7" depart="52.50" from="689583171#0" to="693885804#0" type="taxi"/>
    <trip id="tx_8" depart="60.00" from="-642050077" to="1255578181" type="taxi"/>
    <trip id="tx_9" depart="67.50" from="1034028676#1" to="1280614505#0" type="taxi"/>
    <trip id="tx_10" depart="75.00" from="-828678819" to="295408463#1" type="taxi"/>
    <trip id="tx_11" depart="82.50" from="1279915919" to="779462187#1" type="taxi"/>
    <trip id="tx_12" depart="90.00" from="295408452#7" to="-39354228#8" type="taxi"/>
    <trip id="tx_13" depart="97.50" from="-118672606#0" to="695025562#0" type="taxi"/>
    <trip id="tx_14" depart="105.00" from="-118672606#7" to="693885803#0" type="taxi"/>
    <trip id="tx_15" depart="112.50" from="-828724756#1" to="160628085#1" type="taxi"/>
    <trip id="tx_16" depart="120.00" from="1280219259#1" to="-39368999#16" type="taxi"/>
    <trip id="tx_17" depart="127.50" from="695025562#0" to="35950864#6" type="taxi"/>
    <trip id="tx_18" depart="135.00" from="693885804#2" to="295408468#0" type="taxi"/>
    <trip id="tx_19" depart="142.50" from="39368999#1" to="302751287" type="taxi"/>
    <trip id="tx_20" depart="150.00" from="-302751295#9" to="673151142#2" type="taxi"/>
    <trip id="tx_21" depart="157.50" from="1280089222" to="118674615#2" type="taxi"/>
    <trip id="tx_22" depart="165.00" from="1282340736" to="-405962816#1" type="taxi"/>
    <trip id="tx_23" depart="172.50" from="408161670#18" to="408161670#20" type="taxi"/>
    <trip id="tx_24" depart="180.00" from="302751284#3" to="-118672606#7" type="taxi"/>
    <trip id="tx_25" depart="187.50" from="35950868#23" to="-372220804#34" type="taxi"/>
    <trip id="tx_26" depart="195.00" from="321069035#0" to="1446429434#0" type="taxi"/>
    <trip id="tx_27" depart="202.50" from="372464935#2" to="-663749308#0" type="taxi"/>
    <trip id="tx_28" depart="210.00" from="828678814#5" to="910359052#9" type="taxi"/>
    <trip id="tx_29" depart="217.50" from="695033474#1" to="295408462#8" type="taxi"/>
    <trip id="tx_30" depart="225.00" from="-405113896#1" to="696169687#1" type="taxi"/>
    <trip id="tx_31" depart="232.50" from="39368999#13" to="295394152#1" type="taxi"/>
    <trip id="tx_32" depart="240.00" from="160628085#1" to="695025562#0" type="taxi"/>
    <trip id="tx_33" depart="247.50" from="-372466117#3" to="696168834#1" type="taxi"/>
    <trip id="tx_34" depart="255.00" from="295408462#12" to="695496039#1" type="taxi"/>
    <trip id="tx_35" depart="262.50" from="694202154#0" to="-642354268#3" type="taxi"/>
    <trip id="tx_36" depart="270.00" from="372466117#2" to="828678832" type="taxi"/>
    <trip id="tx_37" depart="277.50" from="295449627#2" to="35950897#15" type="taxi"/>
    <trip id="tx_38" depart="285.00" from="-372589137#0" to="-35950882#5" type="taxi"/>
    <trip id="tx_39" depart="292.50" from="697200467#4-AddedOffRampEdge" to="408161670#0" type="taxi"/>
    <trip id="tx_40" depart="300.00" from="295408452#16-AddedOffRampEdge" to="695496040" type="taxi"/>
    <trip id="tx_41" depart="307.50" from="-1282340714" to="295408452#8" type="taxi"/>
    <trip id="tx_42" depart="315.00" from="295408462#10" to="1280089201#1" type="taxi"/>
    <trip id="tx_43" depart="322.50" from="408161670#20" to="302751295#9" type="taxi"/>
    <trip id="tx_44" depart="330.00" from="1280614504#1" to="-372466117#0" type="taxi"/>
    <trip id="tx_45" depart="337.50" from="372467078#1" to="1279915897" type="taxi"/>
    <trip id="tx_46" depart="345.00" from="-118575976#1" to="-828724681" type="taxi"/>
    <trip id="tx_47" depart="352.50" from="964171425#5" to="-676450957" type="taxi"/>
    <trip id="tx_48" depart="360.00" from="1280219257#2" to="35950959#2" type="taxi"/>
    <trip id="tx_49" depart="367.50" from="-676458408" to="118672607#5" type="taxi"/>
    <trip id="tx_50" depart="375.00" from="828678859" to="343417844#0" type="taxi"/>
    <trip id="tx_51" depart="382.50" from="694601892" to="-828724763#5" type="taxi"/>
    <trip id="tx_52" depart="390.00" from="295408452#7" to="695490086#1" type="taxi"/>
    <trip id="tx_53" depart="397.50" from="-118570168#6" to="693885804#0" type="taxi"/>
    <trip id="tx_54" depart="405.00" from="1280089201#0" to="302751282-AddedOnRampEdge" type="taxi"/>
    <trip id="tx_55" depart="412.50" from="295408452#8" to="1280219261" type="taxi"/>
    <trip id="tx_56" depart="420.00" from="-302751295#18" to="-828724697#0" type="taxi"/>
    <trip id="tx_57" depart="427.50" from="828724712" to="-697870570" type="taxi"/>
    <trip id="tx_58" depart="435.00" from="642050077" to="695502614" type="taxi"/>
    <trip id="tx_59" depart="442.50" from="295408477" to="1280219259#0" type="taxi"/>
    <trip id="tx_60" depart="450.00" from="-39368999#10" to="828724756#1" type="taxi"/>
    <trip id="tx_61" depart="457.50" from="1034028677#0" to="697200467#4-AddedOffRampEdge" type="taxi"/>
    <trip id="tx_62" depart="465.00" from="695496039#3" to="35950864#21" type="taxi"/>
    <trip id="tx_63" depart="472.50" from="35950897#6" to="295408468#4" type="taxi"/>
    <trip id="tx_64" depart="480.00" from="118673937#4" to="1280089201#1" type="taxi"/>
    <trip id="tx_65" depart="487.50" from="118688839#3" to="-39368999#14" type="taxi"/>
    <trip id="tx_66" depart="495.00" from="689583171#4" to="302751282-AddedOnRampEdge" type="taxi"/>
    <trip id="tx_67" depart="502.50" from="-643237806#0" to="693885804#0" type="taxi"/>
    <trip id="tx_68" depart="510.00" from="694830397" to="35950897#10" type="taxi"/>
    <trip id="tx_69" depart="517.50" from="695040105#5" to="35950897#0" type="taxi"/>
    <trip id="tx_70" depart="525.00" from="694767769" to="695295267#0" type="taxi"/>
    <trip id="tx_71" depart="532.50" from="695496039#0" to="408161670#23" type="taxi"/>
    <trip id="tx_72" depart="540.00" from="694594970#0" to="1280219265" type="taxi"/>
    <trip id="tx_73" depart="547.50" from="118573603#2" to="408161670#16" type="taxi"/>
    <trip id="tx_74" depart="555.00" from="828724763#0" to="641077469" type="taxi"/>
    <trip id="tx_75" depart="562.50" from="-118570174#1" to="-35950942#0" type="taxi"/>
    <trip id="tx_76" depart="570.00" from="-118688839#6" to="-118570149#3" type="taxi"/>
    <trip id="tx_77" depart="577.50" from="676438755" to="693885804#2" type="taxi"/>
    <trip id="tx_78" depart="585.00" from="697200467#4" to="561913437#3" type="taxi"/>
    <trip id="tx_79" depart="592.50" from="-828724768#4" to="408161670#22" type="taxi"/>
</routes>
