<?xml version="1.0" encoding="UTF-8"?>

<!-- generated on 2026-03-22 02:06:46.520328 by Eclipse SUMO randomTrips.py v1_26_0+0000-fa7df22d7f1
<configuration>
    <net-file value="D:\WeSaveTime-ASEAN\sumo\danang\danang.net.xml"/>
    <additional-files value="D:\WeSaveTime-ASEAN\sumo\danang\danang.vtypes.xml"/>
    <weights-prefix value="D:\WeSaveTime-ASEAN\sumo\danang\danang.weights"/>
    <output-trip-file value="D:\WeSaveTime-ASEAN\sumo\danang\danang.sv_.trips.xml"/>
    <prefix value="sv_"/>
    <trip-attributes value="type=&quot;car_suv&quot;"/>
    <fringe-factor value="5"/>
    <random value="True"/>
    <remove-loops value="True"/>
    <end value="600.0"/>
    <period value="7.5"/>
</configuration>
-->

<routes xmlns:xsi="http://www.w3.org/2001/XMLSchema-instance" xsi:noNamespaceSchemaLocation="http://sumo.dlr.de/xsd/routes_file.xsd">
    <trip id="sv_0" depart="0.00" from="828678909#0" to="295449620" type="car_suv"/>
    <trip id="sv_1" depart="7.50" from="1447078728#1" to="408161670#28" type="car_suv"/>
    <trip id="sv_2" depart="15.00" from="-1279259377#1" to="-676458405#3" type="car_suv"/>
    <trip id="sv_3" depart="22.50" from="35950897#0" to="408161670#24" type="car_suv"/>
    <trip id="sv_4" depart="30.00" from="295449627#0" to="-828678874#0" type="car_suv"/>
    <trip id="sv_5" depart="37.50" from="695040552#0" to="1165643358" type="car_suv"/>
    <trip id="sv_6" depart="45.00" from="-372220804#22" to="321069038#0" type="car_suv"/>
    <trip id="sv_7" depart="52.50" from="695033474#1" to="1280219261" type="car_suv"/>
    <trip id="sv_8" depart="60.00" from="-895430059" to="-35950882#2" type="car_suv"/>
    <trip id="sv_9" depart="67.50" from="695446625#3" to="35950897#0" type="car_suv"/>
    <trip id="sv_10" depart="75.00" from="295449625#1" to="199383481-AddedOnRampEdge" type="car_suv"/>
    <trip id="sv_11" depart="82.50" from="295408459#5" to="697200467#0" type="car_suv"/>
    <trip id="sv_12" depart="90.00" from="697200467#9" to="1280089222" type="car_suv"/>
    <trip id="sv_13" depart="97.50" from="1361140406" to="1391330071" type="car_suv"/>
    <trip id="sv_14" depart="105.00" from="408161670#24" to="695502613" type="car_suv"/>
    <trip id="sv_15" depart="112.50" from="695025560#0" to="828678858" type="car_suv"/>
    <trip id="sv_16" depart="120.00" from="1282340735" to="-828724786" type="car_suv"/>
    <trip id="sv_17" depart="127.50" from="694775628#2" to="-405962813" type="car_suv"/>
    <trip id="sv_18" depart="135.00" from="695040552#0" to="-676509072#2" type="car_suv"/>
    <trip id="sv_19" depart="142.50" from="118570181#5" to="693885804#0" type="car_suv"/>
    <trip id="sv_20" depart="150.00" from="642451374" to="828678814#2" type="car_suv"/>
    <trip id="sv_21" depart="157.50" from="828678800" to="-828678836" type="car_suv"/>
    <trip id="sv_22" depart="165.00" from="695040552#1" to="696168834#1" type="car_suv"/>
    <trip id="sv_23" depart="172.50" from="408161670#16" to="1426764507#2" type="car_suv"/>
    <trip id="sv_24" depart="180.00" from="-35950864#21" to="695496039#2" type="car_suv"/>
    <trip id="sv_25" depart="187.50" from="695496042#0" to="1034028678" type="car_suv"/>
    <trip id="sv_26" depart="195.00" from="695295267#0" to="295449627#2" type="car_suv"/>
    <trip id="sv_27" depart="202.50" from="408161670#23" to="372467087#0" type="car_suv"/>
    <trip id="sv_28" depart="210.00" from="1280089201#2" to="828724692" type="car_suv"/>
    <trip id="sv_29" depart="217.50" from="694830396" to="964171425#2" type="car_suv"/>
    <trip id="sv_30" depart="225.00" from="-372463312" to="964171425#3" type="car_suv"/>
    <trip id="sv_31" depart="232.50" from="695040105#5" to="118570151#0" type="car_suv"/>
    <trip id="sv_32" depart="240.00" from="562701506#1" to="408161670#21" type="car_suv"/>
    <trip id="sv_33" depart="247.50" from="1280089201#1" to="-118673937#4" type="car_suv"/>
    <trip id="sv_34" depart="255.00" from="673151142#2" to="-118555049#15" type="car_suv"/>
    <trip id="sv_35" depart="262.50" from="696169687#1" to="302751284#0" type="car_suv"/>
    <trip id="sv_36" depart="270.00" from="828724717" to="-372220804#4" type="car_suv"/>
    <trip id="sv_37" depart="277.50" from="-828724775" to="-676438752#0" type="car_suv"/>
    <trip id="sv_38" depart="285.00" from="-905050168" to="828678802#1" type="car_suv"/>
    <trip id="sv_39" depart="292.50" from="828724699#0" to="118673886#0" type="car_suv"/>
    <trip id="sv_40" depart="300.00" from="828724767#0" to="695040105#3" type="car_suv"/>
    <trip id="sv_41" depart="307.50" from="1280219267" to="828724684#1" type="car_suv"/>
    <trip id="sv_42" depart="315.00" from="295408459#7" to="1034028675#6" type="car_suv"/>
    <trip id="sv_43" depart="322.50" from="694583900#0-AddedOffRampEdge" to="-828678770" type="car_suv"/>
    <trip id="sv_44" depart="330.00" from="-35950868#21" to="1160316964" type="car_suv"/>
    <trip id="sv_45" depart="337.50" from="295449627#2" to="828678912#3" type="car_suv"/>
    <trip id="sv_46" depart="345.00" from="295408452#6" to="-561474244" type="car_suv"/>
    <trip id="sv_47" depart="352.50" from="372466121#1" to="-35950864#5" type="car_suv"/>
    <trip id="sv_48" depart="360.00" from="694583900#0-AddedOffRampEdge" to="695446625#0" type="car_suv"/>
    <trip id="sv_49" depart="367.50" from="697200467#7" to="693885804#0" type="car_suv"/>
    <trip id="sv_50" depart="375.00" from="695025560#1" to="828678860#4" type="car_suv"/>
    <trip id="sv_51" depart="382.50" from="828678816#0" to="1280219257#2" type="car_suv"/>
    <trip id="sv_52" depart="390.00" from="295128790#3" to="1280219259#1" type="car_suv"/>
    <trip id="sv_53" depart="397.50" from="828678846" to="695295267#2" type="car_suv"/>
    <trip id="sv_54" depart="405.00" from="-118575972#0" to="-695446623#0" type="car_suv"/>
    <trip id="sv_55" depart="412.50" from="1280614504#2" to="118566872#1" type="car_suv"/>
    <trip id="sv_56" depart="420.00" from="694775628#0" to="673151142#4" type="car_suv"/>
    <trip id="sv_57" depart="427.50" from="693885804#0" to="1282340735" type="car_suv"/>
    <trip id="sv_58" depart="435.00" from="35950897#1" to="676465938#1" type="car_suv"/>
    <trip id="sv_59" depart="442.50" from="828724760" to="-1282340713#1" type="car_suv"/>
    <trip id="sv_60" depart="450.00" from="676465939#1" to="643237805" type="car_suv"/>
    <trip id="sv_61" depart="457.50" from="-828678878#1" to="-828724700#3" type="car_suv"/>
    <trip id="sv_62" depart="465.00" from="-302751295#3" to="408161670#22" type="car_suv"/>
    <trip id="sv_63" depart="472.50" from="694830396" to="295408468#0" type="car_suv"/>
    <trip id="sv_64" depart="480.00" from="-828724721" to="295449627#3" type="car_suv"/>
    <trip id="sv_65" depart="487.50" from="695025560#0" to="695040105#0" type="car_suv"/>
    <trip id="sv_66" depart="495.00" from="1034028675#0" to="695025560#1" type="car_suv"/>
    <trip id="sv_67" depart="502.50" from="828724737" to="695040105#5" type="car_suv"/>
    <trip id="sv_68" depart="510.00" from="695295267#0" to="1280219260#1" type="car_suv"/>
    <trip id="sv_69" depart="517.50" from="673151142#5" to="695295265#0" type="car_suv"/>
    <trip id="sv_70" depart="525.00" from="35950897#0" to="964171425#4" type="car_suv"/>
    <trip id="sv_71" depart="532.50" from="694583900#0-AddedOffRampEdge" to="694601892" type="car_suv"/>
    <trip id="sv_72" depart="540.00" from="295408463#0" to="372467085#1" type="car_suv"/>
    <trip id="sv_73" depart="547.50" from="295449625#0" to="-118570164#0" type="car_suv"/>
    <trip id="sv_74" depart="555.00" from="1280614485" to="694598419#1-AddedOnRampEdge" type="car_suv"/>
    <trip id="sv_75" depart="562.50" from="828724726#1" to="673151142#2" type="car_suv"/>
    <trip id="sv_76" depart="570.00" from="295408452#9" to="1282340716" type="car_suv"/>
    <trip id="sv_77" depart="577.50" from="695496040" to="689583171#7" type="car_suv"/>
    <trip id="sv_78" depart="585.00" from="964171425#4" to="910359052#5" type="car_suv"/>
    <trip id="sv_79" depart="592.50" from="828678811#1" to="693885802#2" type="car_suv"/>
</routes>
