<?xml version="1.0" encoding="UTF-8"?>

<!-- generated on 2026-03-19 15:47:41.705203 by Eclipse SUMO randomTrips.py v1_26_0+0000-fa7df22d7f1
<configuration>
    <net-file value="D:\WeSaveTime-ASEAN\sumo\danang\danang.net.xml"/>
    <additional-files value="D:\WeSaveTime-ASEAN\sumo\danang\danang.vtypes.xml"/>
    <weights-prefix value="D:\WeSaveTime-ASEAN\sumo\danang\danang.weights"/>
    <output-trip-file value="D:\WeSaveTime-ASEAN\sumo\danang\danang.ma_.trips.xml"/>
    <prefix value="ma_"/>
    <trip-attributes value="type=&quot;motorbike&quot;"/>
    <fringe-factor value="1"/>
    <random value="True"/>
    <remove-loops value="True"/>
    <end value="900.0"/>
    <period value="0.4"/>
</configuration>
-->

<routes xmlns:xsi="http://www.w3.org/2001/XMLSchema-instance" xsi:noNamespaceSchemaLocation="http://sumo.dlr.de/xsd/routes_file.xsd">
    <trip id="ma_0" depart="0.00" from="1034028677#1" to="-676494208" type="motorbike"/>
    <trip id="ma_1" depart="0.40" from="-118672606#0" to="408161672#0" type="motorbike"/>
    <trip id="ma_2" depart="0.80" from="695025562#0" to="676453142#1" type="motorbike"/>
    <trip id="ma_3" depart="1.20" from="695502614" to="828678867" type="motorbike"/>
    <trip id="ma_4" depart="1.60" from="964171425#0" to="302751282-AddedOnRampEdge" type="motorbike"/>
    <trip id="ma_5" depart="2.00" from="295128790#4" to="302751285#0" type="motorbike"/>
    <trip id="ma_6" depart="2.40" from="828678826#1" to="-695510008#0" type="motorbike"/>
    <trip id="ma_7" depart="2.80" from="118567886#0" to="1034028678" type="motorbike"/>
    <trip id="ma_8" depart="3.20" from="35950883#7" to="295408452#1" type="motorbike"/>
    <trip id="ma_9" depart="3.60" from="1282340736" to="694774375#0" type="motorbike"/>
    <trip id="ma_10" depart="4.00" from="118673929#0" to="910359052#5" type="motorbike"/>
    <trip id="ma_11" depart="4.40" from="295408459#5" to="118672606#6" type="motorbike"/>
    <trip id="ma_12" depart="4.80" from="118573606#0" to="-118570168#9" type="motorbike"/>
    <trip id="ma_13" depart="5.20" from="-118570164#2" to="1034028676#1" type="motorbike"/>
    <trip id="ma_14" depart="5.60" from="693885803#26" to="694598419#1" type="motorbike"/>
    <trip id="ma_15" depart="6.00" from="-302751295#12" to="199383481-AddedOnRampEdge" type="motorbike"/>
    <trip id="ma_16" depart="6.40" from="-372466116#1" to="1034028677#0" type="motorbike"/>
    <trip id="ma_17" depart="6.80" from="695504114#0" to="35950897#13" type="motorbike"/>
    <trip id="ma_18" depart="7.20" from="35950897#10" to="-828724764#0" type="motorbike"/>
    <trip id="ma_19" depart="7.60" from="300947940" to="118570163#1" type="motorbike"/>
    <trip id="ma_20" depart="8.00" from="828724710" to="295408459#5" type="motorbike"/>
    <trip id="ma_21" depart="8.40" from="302751284#0" to="295408452#6" type="motorbike"/>
    <trip id="ma_22" depart="8.80" from="372220804#32" to="118570167#1" type="motorbike"/>
    <trip id="ma_23" depart="9.20" from="-562701505" to="1034028675#0" type="motorbike"/>
    <trip id="ma_24" depart="9.60" from="295449627#0" to="-676450958#0" type="motorbike"/>
    <trip id="ma_25" depart="10.00" from="1391330070#0" to="1034027336#1" type="motorbike"/>
    <trip id="ma_26" depart="10.40" from="-561474235" to="295449628" type="motorbike"/>
    <trip id="ma_27" depart="10.80" from="1280089201#0" to="695446625#3" type="motorbike"/>
    <trip id="ma_28" depart="11.20" from="695510007#0" to="-562701502#2" type="motorbike"/>
    <trip id="ma_29" depart="11.60" from="-118688839#2" to="695496039#2" type="motorbike"/>
    <trip id="ma_30" depart="12.00" from="-39368999#9" to="695446625#3" type="motorbike"/>
    <trip id="ma_31" depart="12.40" from="408161670#22" to="295449627#5" type="motorbike"/>
    <trip id="ma_32" depart="12.80" from="964171425#5" to="295449627#4" type="motorbike"/>
    <trip id="ma_33" depart="13.20" from="560329311" to="828678822#0" type="motorbike"/>
    <trip id="ma_34" depart="13.60" from="295408452#16-AddedOffRampEdge" to="695025562#0" type="motorbike"/>
    <trip id="ma_35" depart="14.00" from="694583900#0" to="295408461#4" type="motorbike"/>
    <trip id="ma_36" depart="14.40" from="35950897#6" to="-698936202#1" type="motorbike"/>
    <trip id="ma_37" depart="14.80" from="694775628#0" to="-828678814#7" type="motorbike"/>
    <trip id="ma_38" depart="15.20" from="695504114#0" to="-405962816#0" type="motorbike"/>
    <trip id="ma_39" depart="15.60" from="1034028675#0" to="695490086#1" type="motorbike"/>
    <trip id="ma_40" depart="16.00" from="372220804#0" to="302751284#0" type="motorbike"/>
    <trip id="ma_41" depart="16.40" from="1282340731" to="-828678874#1" type="motorbike"/>
    <trip id="ma_42" depart="16.80" from="-35950942#2" to="408161670#20" type="motorbike"/>
    <trip id="ma_43" depart="17.20" from="676714129" to="295408465#2" type="motorbike"/>
    <trip id="ma_44" depart="17.60" from="408161670#18" to="694598419#1" type="motorbike"/>
    <trip id="ma_45" depart="18.00" from="695030266" to="35950925#3" type="motorbike"/>
    <trip id="ma_46" depart="18.40" from="295408452#16-AddedOffRampEdge" to="-39354228#6" type="motorbike"/>
    <trip id="ma_47" depart="18.80" from="295408459#0" to="695502611#1" type="motorbike"/>
    <trip id="ma_48" depart="19.20" from="295408459#5" to="765351891#0" type="motorbike"/>
    <trip id="ma_49" depart="19.60" from="697200467#4" to="295408459#7" type="motorbike"/>
    <trip id="ma_50" depart="20.00" from="894924691" to="295408459#5" type="motorbike"/>
    <trip id="ma_51" depart="20.40" from="1282340772" to="295408452#6" type="motorbike"/>
    <trip id="ma_52" depart="20.80" from="408161670#27" to="295408452#16" type="motorbike"/>
    <trip id="ma_53" depart="21.20" from="695040105#0" to="372220804#22" type="motorbike"/>
    <trip id="ma_54" depart="21.60" from="694774375#0" to="698936203#3" type="motorbike"/>
    <trip id="ma_55" depart="22.00" from="694583900#0-AddedOffRampEdge" to="1034027336#0" type="motorbike"/>
    <trip id="ma_56" depart="22.40" from="1280219265" to="295408465#2" type="motorbike"/>
    <trip id="ma_57" depart="22.80" from="35950897#0" to="408161670#24" type="motorbike"/>
    <trip id="ma_58" depart="23.20" from="641397122#4" to="295408461#4" type="motorbike"/>
    <trip id="ma_59" depart="23.60" from="-118570181#1" to="828678874#0" type="motorbike"/>
    <trip id="ma_60" depart="24.00" from="1280089222" to="199383481-AddedOnRampEdge" type="motorbike"/>
    <trip id="ma_61" depart="24.40" from="118570175" to="1282340736" type="motorbike"/>
    <trip id="ma_62" depart="24.80" from="1210918872#1" to="118566873#1" type="motorbike"/>
    <trip id="ma_63" depart="25.20" from="828678788#2" to="1279915896#1" type="motorbike"/>
    <trip id="ma_64" depart="25.60" from="697200467#10" to="-39368999#12" type="motorbike"/>
    <trip id="ma_65" depart="26.00" from="-828724697#0" to="676461674" type="motorbike"/>
    <trip id="ma_66" depart="26.40" from="689583171#3" to="695504114#0" type="motorbike"/>
    <trip id="ma_67" depart="26.80" from="118673921#2" to="693416427" type="motorbike"/>
    <trip id="ma_68" depart="27.20" from="693885804#0" to="-256672293" type="motorbike"/>
    <trip id="ma_69" depart="27.60" from="694583900#0-AddedOffRampEdge" to="295408462#0" type="motorbike"/>
    <trip id="ma_70" depart="28.00" from="-828678745#1" to="910359052#7" type="motorbike"/>
    <trip id="ma_71" depart="28.40" from="-35950883#8" to="295408461#10" type="motorbike"/>
    <trip id="ma_72" depart="28.80" from="697200467#4" to="695040552#0" type="motorbike"/>
    <trip id="ma_73" depart="29.20" from="118570175" to="-828678750#0" type="motorbike"/>
    <trip id="ma_74" depart="29.60" from="1034028675#0" to="695025562#0" type="motorbike"/>
    <trip id="ma_75" depart="30.00" from="1034028676#0" to="160628085#2" type="motorbike"/>
    <trip id="ma_76" depart="30.40" from="118570174#2" to="118672606#9" type="motorbike"/>
    <trip id="ma_77" depart="30.80" from="295408463#0" to="964171425#5" type="motorbike"/>
    <trip id="ma_78" depart="31.20" from="828678801#1" to="562709015#2" type="motorbike"/>
    <trip id="ma_79" depart="31.60" from="1282340731" to="35950897#15" type="motorbike"/>
    <trip id="ma_80" depart="32.00" from="-39368999#5" to="1280219257#0" type="motorbike"/>
    <trip id="ma_81" depart="32.40" from="910359052#0" to="1034028678" type="motorbike"/>
    <trip id="ma_82" depart="32.80" from="694830397" to="1280089201#2" type="motorbike"/>
    <trip id="ma_83" depart="33.20" from="695025562#0" to="118570175" type="motorbike"/>
    <trip id="ma_84" depart="33.60" from="695496042#0" to="1034028677#0" type="motorbike"/>
    <trip id="ma_85" depart="34.00" from="295408464#0" to="1280614485" type="motorbike"/>
    <trip id="ma_86" depart="34.40" from="-35950864#2" to="295449627#0" type="motorbike"/>
    <trip id="ma_87" depart="34.80" from="295408464#0-AddedOffRampEdge" to="828678827" type="motorbike"/>
    <trip id="ma_88" depart="35.20" from="295408460#2" to="693416739#3" type="motorbike"/>
    <trip id="ma_89" depart="35.60" from="695502611#1" to="408161670#25" type="motorbike"/>
    <trip id="ma_90" depart="36.00" from="910359052#9" to="-828724716" type="motorbike"/>
    <trip id="ma_91" depart="36.40" from="828678749#1" to="199383481" type="motorbike"/>
    <trip id="ma_92" depart="36.80" from="302751284#3" to="295449627#4" type="motorbike"/>
    <trip id="ma_93" depart="37.20" from="1034028677#1" to="694598419#1-AddedOnRampEdge" type="motorbike"/>
    <trip id="ma_94" depart="37.60" from="295128790#0" to="694598419#1-AddedOnRampEdge" type="motorbike"/>
    <trip id="ma_95" depart="38.00" from="372220804#16" to="118570167#0" type="motorbike"/>
    <trip id="ma_96" depart="38.40" from="-118575975#3" to="695496039#3" type="motorbike"/>
    <trip id="ma_97" depart="38.80" from="695502613" to="118688839#2" type="motorbike"/>
    <trip id="ma_98" depart="39.20" from="694598419#1-AddedOnRampEdge" to="1282340716" type="motorbike"/>
    <trip id="ma_99" depart="39.60" from="828678837#0" to="408161670#22" type="motorbike"/>
    <trip id="ma_100" depart="40.00" from="695504114#0" to="295408452#6" type="motorbike"/>
    <trip id="ma_101" depart="40.40" from="1280614485" to="160628085#1" type="motorbike"/>
    <trip id="ma_102" depart="40.80" from="1280219260#1" to="1034027336#1" type="motorbike"/>
    <trip id="ma_103" depart="41.20" from="694583900#0-AddedOffRampEdge" to="779462187#1" type="motorbike"/>
    <trip id="ma_104" depart="41.60" from="-828724765" to="1280219258#0" type="motorbike"/>
    <trip id="ma_105" depart="42.00" from="295408452#0" to="295408462#0" type="motorbike"/>
    <trip id="ma_106" depart="42.40" from="35950883#1" to="302751282-AddedOnRampEdge" type="motorbike"/>
    <trip id="ma_107" depart="42.80" from="695040105#5" to="695510007#1" type="motorbike"/>
    <trip id="ma_108" depart="43.20" from="-295449622#2" to="1282340736" type="motorbike"/>
    <trip id="ma_109" depart="43.60" from="1280219258#0" to="408161672#1" type="motorbike"/>
    <trip id="ma_110" depart="44.00" from="1280089222" to="295449625#0" type="motorbike"/>
    <trip id="ma_111" depart="44.40" from="-894924691" to="1279915919" type="motorbike"/>
    <trip id="ma_112" depart="44.80" from="964171425#0" to="695295267#0" type="motorbike"/>
    <trip id="ma_113" depart="45.20" from="1391330070#6" to="695446625#1" type="motorbike"/>
    <trip id="ma_114" depart="45.60" from="-641397119#1" to="295408462#8" type="motorbike"/>
    <trip id="ma_115" depart="46.00" from="910359052#0" to="295408465#2" type="motorbike"/>
    <trip id="ma_116" depart="46.40" from="779462187#1" to="199383481-AddedOnRampEdge" type="motorbike"/>
    <trip id="ma_117" depart="46.80" from="1034028675#6" to="1280219260#1" type="motorbike"/>
    <trip id="ma_118" depart="47.20" from="1280089222" to="-641092773" type="motorbike"/>
    <trip id="ma_119" depart="47.60" from="695490087#1" to="1391330070#0" type="motorbike"/>
    <trip id="ma_120" depart="48.00" from="697200467#11" to="828724711#0" type="motorbike"/>
    <trip id="ma_121" depart="48.40" from="-828724713" to="695490087#1" type="motorbike"/>
    <trip id="ma_122" depart="48.80" from="689583171#0" to="828724705#0" type="motorbike"/>
    <trip id="ma_123" depart="49.20" from="694830397" to="697200467#11" type="motorbike"/>
    <trip id="ma_124" depart="49.60" from="295408452#7" to="1034028675#6" type="motorbike"/>
    <trip id="ma_125" depart="50.00" from="-641397123#1" to="302737424#1" type="motorbike"/>
    <trip id="ma_126" depart="50.40" from="302751284#0" to="1280219261" type="motorbike"/>
    <trip id="ma_127" depart="50.80" from="35950897#15" to="295408452#6" type="motorbike"/>
    <trip id="ma_128" depart="51.20" from="39368999#2" to="676438752#1" type="motorbike"/>
    <trip id="ma_129" depart="51.60" from="295128790#4" to="295408459#7" type="motorbike"/>
    <trip id="ma_130" depart="52.00" from="1280089201#2" to="-561474235" type="motorbike"/>
    <trip id="ma_131" depart="52.40" from="295408463#1" to="-118672619#1" type="motorbike"/>
    <trip id="ma_132" depart="52.80" from="695510007#0" to="-828724786" type="motorbike"/>
    <trip id="ma_133" depart="53.20" from="-676453141" to="-302751295#32" type="motorbike"/>
    <trip id="ma_134" depart="53.60" from="1282340719" to="1279915921" type="motorbike"/>
    <trip id="ma_135" depart="54.00" from="694600787" to="641077473#1" type="motorbike"/>
    <trip id="ma_136" depart="54.40" from="-1447078728#0" to="828724694#0" type="motorbike"/>
    <trip id="ma_137" depart="54.80" from="694772625#0" to="295408452#16-AddedOffRampEdge" type="motorbike"/>
    <trip id="ma_138" depart="55.20" from="295408459#5" to="694715299#1" type="motorbike"/>
    <trip id="ma_139" depart="55.60" from="695496039#2" to="-828678792" type="motorbike"/>
    <trip id="ma_140" depart="56.00" from="642050078#1" to="695025560#0" type="motorbike"/>
    <trip id="ma_141" depart="56.40" from="35950897#10" to="695446625#3" type="motorbike"/>
    <trip id="ma_142" depart="56.80" from="1282340717#2" to="295449625#0" type="motorbike"/>
    <trip id="ma_143" depart="57.20" from="-676438753#2" to="160628085#2" type="motorbike"/>
    <trip id="ma_144" depart="57.60" from="676458405#0" to="695030266" type="motorbike"/>
    <trip id="ma_145" depart="58.00" from="694598419#1" to="39368999#14" type="motorbike"/>
    <trip id="ma_146" depart="58.40" from="295449627#0" to="697200467#9" type="motorbike"/>
    <trip id="ma_147" depart="58.80" from="828678787#2" to="695030266" type="motorbike"/>
    <trip id="ma_148" depart="59.20" from="295408462#10" to="-118570167#1" type="motorbike"/>
    <trip id="ma_149" depart="59.60" from="1282340737" to="35950897#15" type="motorbike"/>
    <trip id="ma_150" depart="60.00" from="694830397" to="-828678810#3" type="motorbike"/>
    <trip id="ma_151" depart="60.40" from="828678790" to="695025562#0" type="motorbike"/>
    <trip id="ma_152" depart="60.80" from="-35950864#27" to="1282340736" type="motorbike"/>
    <trip id="ma_153" depart="61.20" from="694594970#0" to="-118688839#5" type="motorbike"/>
    <trip id="ma_154" depart="61.60" from="694583900#0-AddedOffRampEdge" to="-118570149#5" type="motorbike"/>
    <trip id="ma_155" depart="62.00" from="695295268" to="910359052#0" type="motorbike"/>
    <trip id="ma_156" depart="62.40" from="695502613" to="372464936" type="motorbike"/>
    <trip id="ma_157" depart="62.80" from="1280219258#0" to="1280219260#1" type="motorbike"/>
    <trip id="ma_158" depart="63.20" from="-302751295#11" to="302751282-AddedOnRampEdge" type="motorbike"/>
    <trip id="ma_159" depart="63.60" from="1034027336#1" to="199383481-AddedOnRampEdge" type="motorbike"/>
    <trip id="ma_160" depart="64.00" from="-1279915898#3" to="1279915896#0" type="motorbike"/>
    <trip id="ma_161" depart="64.40" from="404709476" to="695295267#0" type="motorbike"/>
    <trip id="ma_162" depart="64.80" from="372220804#5" to="696168834#0" type="motorbike"/>
    <trip id="ma_163" depart="65.20" from="295408452#9" to="295408461#0" type="motorbike"/>
    <trip id="ma_164" depart="65.60" from="-118672608#1" to="1034028675#2" type="motorbike"/>
    <trip id="ma_165" depart="66.00" from="1280219259#0" to="-372220804#33" type="motorbike"/>
    <trip id="ma_166" depart="66.40" from="295449627#0" to="-828724749#0" type="motorbike"/>
    <trip id="ma_167" depart="66.80" from="295408452#16" to="295128790#4" type="motorbike"/>
    <trip id="ma_168" depart="67.20" from="1282340731" to="302751282-AddedOnRampEdge" type="motorbike"/>
    <trip id="ma_169" depart="67.60" from="641397122#1" to="295408461#7" type="motorbike"/>
    <trip id="ma_170" depart="68.00" from="-372464934#0" to="695429325#1" type="motorbike"/>
    <trip id="ma_171" depart="68.40" from="-39368999#5" to="-563780767#1" type="motorbike"/>
    <trip id="ma_172" depart="68.80" from="-828678807" to="693885803#17" type="motorbike"/>
    <trip id="ma_173" depart="69.20" from="695090346#0" to="295408462#10" type="motorbike"/>
    <trip id="ma_174" depart="69.60" from="118575975#0" to="295408452#16-AddedOffRampEdge" type="motorbike"/>
    <trip id="ma_175" depart="70.00" from="295449627#5" to="408161670#22" type="motorbike"/>
    <trip id="ma_176" depart="70.40" from="408161670#27" to="673151142#4" type="motorbike"/>
    <trip id="ma_177" depart="70.80" from="372467087#2" to="779462187#1" type="motorbike"/>
    <trip id="ma_178" depart="71.20" from="295408452#0" to="295408461#0" type="motorbike"/>
    <trip id="ma_179" depart="71.60" from="295408459#5" to="694601892" type="motorbike"/>
    <trip id="ma_180" depart="72.00" from="118570175" to="676450958#1" type="motorbike"/>
    <trip id="ma_181" depart="72.40" from="693416739#0" to="-118555049#17" type="motorbike"/>
    <trip id="ma_182" depart="72.80" from="1034028675#2" to="1034028677#1" type="motorbike"/>
    <trip id="ma_183" depart="73.20" from="-118672608#3" to="695040552#1" type="motorbike"/>
    <trip id="ma_184" depart="73.60" from="295128790#4" to="295408452#10" type="motorbike"/>
    <trip id="ma_185" depart="74.00" from="295408464#0-AddedOffRampEdge" to="1034028676#2" type="motorbike"/>
    <trip id="ma_186" depart="74.40" from="694830395#0" to="828724758#1" type="motorbike"/>
    <trip id="ma_187" depart="74.80" from="694830397" to="1279915897" type="motorbike"/>
    <trip id="ma_188" depart="75.20" from="118570185#0" to="1280089222" type="motorbike"/>
    <trip id="ma_189" depart="75.60" from="302751295#26" to="910359052#9" type="motorbike"/>
    <trip id="ma_190" depart="76.00" from="694775628#0" to="295408465#1" type="motorbike"/>
    <trip id="ma_191" depart="76.40" from="408161670#20" to="673151142#3" type="motorbike"/>
    <trip id="ma_192" depart="76.80" from="-118672444#1" to="828724765" type="motorbike"/>
    <trip id="ma_193" depart="77.20" from="694830397" to="118570181#3" type="motorbike"/>
    <trip id="ma_194" depart="77.60" from="695504114#0" to="1280089201#0" type="motorbike"/>
    <trip id="ma_195" depart="78.00" from="1280219258#0" to="697200467#10" type="motorbike"/>
    <trip id="ma_196" depart="78.40" from="-118570149#1" to="295408461#7" type="motorbike"/>
    <trip id="ma_197" depart="78.80" from="-375341805" to="295408452#1" type="motorbike"/>
    <trip id="ma_198" depart="79.20" from="693416739#3" to="1280219260#1" type="motorbike"/>
    <trip id="ma_199" depart="79.60" from="697200467#11" to="895482900" type="motorbike"/>
    <trip id="ma_200" depart="80.00" from="694598419#0" to="295408452#6" type="motorbike"/>
    <trip id="ma_201" depart="80.40" from="693885802#2" to="910359052#8" type="motorbike"/>
    <trip id="ma_202" depart="80.80" from="295408452#11" to="673151142#3" type="motorbike"/>
    <trip id="ma_203" depart="81.20" from="160628085#1" to="295408452#16" type="motorbike"/>
    <trip id="ma_204" depart="81.60" from="1280219257#0" to="295408452#8" type="motorbike"/>
    <trip id="ma_205" depart="82.00" from="-295386152#3" to="693416739#3" type="motorbike"/>
    <trip id="ma_206" depart="82.40" from="1280219257#0" to="295408452#10" type="motorbike"/>
    <trip id="ma_207" depart="82.80" from="695295268" to="295408452#6" type="motorbike"/>
    <trip id="ma_208" depart="83.20" from="-828678804" to="39368999#11" type="motorbike"/>
    <trip id="ma_209" depart="83.60" from="295408452#16" to="695502614" type="motorbike"/>
    <trip id="ma_210" depart="84.00" from="-35950864#30" to="828724687" type="motorbike"/>
    <trip id="ma_211" depart="84.40" from="295408452#6" to="697200467#8" type="motorbike"/>
    <trip id="ma_212" depart="84.80" from="910359052#7" to="-39368999#3" type="motorbike"/>
    <trip id="ma_213" depart="85.20" from="1280219261" to="673151142#4" type="motorbike"/>
    <trip id="ma_214" depart="85.60" from="295449629#1" to="-35950868#14" type="motorbike"/>
    <trip id="ma_215" depart="86.00" from="695502611#1" to="689583171#7" type="motorbike"/>
    <trip id="ma_216" depart="86.40" from="118672612#4" to="1280089222" type="motorbike"/>
    <trip id="ma_217" depart="86.80" from="295408464#0-AddedOffRampEdge" to="295408452#16-AddedOffRampEdge" type="motorbike"/>
    <trip id="ma_218" depart="87.20" from="693885803#26" to="35950925#6" type="motorbike"/>
    <trip id="ma_219" depart="87.60" from="1282340717#0" to="964171425#6" type="motorbike"/>
    <trip id="ma_220" depart="88.00" from="694715299#1" to="35950882#7" type="motorbike"/>
    <trip id="ma_221" depart="88.40" from="696169688" to="694775628#2" type="motorbike"/>
    <trip id="ma_222" depart="88.80" from="694715298" to="1282715056" type="motorbike"/>
    <trip id="ma_223" depart="89.20" from="694715299#1" to="1282340718" type="motorbike"/>
    <trip id="ma_224" depart="89.60" from="1034028675#0" to="695040105#0" type="motorbike"/>
    <trip id="ma_225" depart="90.00" from="693111346#0" to="39368999#6" type="motorbike"/>
    <trip id="ma_226" depart="90.40" from="694775628#2" to="295408452#16-AddedOffRampEdge" type="motorbike"/>
    <trip id="ma_227" depart="90.80" from="-676450957" to="828724707" type="motorbike"/>
    <trip id="ma_228" depart="91.20" from="673151142#4" to="-372466114#3" type="motorbike"/>
    <trip id="ma_229" depart="91.60" from="-39368999#0" to="35950897#15" type="motorbike"/>
    <trip id="ma_230" depart="92.00" from="695510007#1" to="408161670#25" type="motorbike"/>
    <trip id="ma_231" depart="92.40" from="694583900#0" to="694775628#2" type="motorbike"/>
    <trip id="ma_232" depart="92.80" from="295408452#7" to="828678779#1" type="motorbike"/>
    <trip id="ma_233" depart="93.20" from="295408462#12" to="35950897#13" type="motorbike"/>
    <trip id="ma_234" depart="93.60" from="-698067307#0" to="-828678792" type="motorbike"/>
    <trip id="ma_235" depart="94.00" from="1282340731" to="910359052#8" type="motorbike"/>
    <trip id="ma_236" depart="94.40" from="695025562#0" to="295449627#4" type="motorbike"/>
    <trip id="ma_237" depart="94.80" from="694598419#1-AddedOnRampEdge" to="641106173" type="motorbike"/>
    <trip id="ma_238" depart="95.20" from="295408463#1" to="118566872#4" type="motorbike"/>
    <trip id="ma_239" depart="95.60" from="295408452#6" to="693885802#2" type="motorbike"/>
    <trip id="ma_240" depart="96.00" from="-372466122#1" to="408161670#24" type="motorbike"/>
    <trip id="ma_241" depart="96.40" from="-828678817#2" to="694600787" type="motorbike"/>
    <trip id="ma_242" depart="96.80" from="-35950864#30" to="302751282" type="motorbike"/>
    <trip id="ma_243" depart="97.20" from="-118570183#0" to="-118567892" type="motorbike"/>
    <trip id="ma_244" depart="97.60" from="641397117" to="895482900" type="motorbike"/>
    <trip id="ma_245" depart="98.00" from="697200467#4" to="295449627#0" type="motorbike"/>
    <trip id="ma_246" depart="98.40" from="295408452#16-AddedOffRampEdge" to="295408461#4" type="motorbike"/>
    <trip id="ma_247" depart="98.80" from="1346339141#0" to="695446623#1" type="motorbike"/>
    <trip id="ma_248" depart="99.20" from="-302751295#7" to="1280089222" type="motorbike"/>
    <trip id="ma_249" depart="99.60" from="694830397" to="39368999#17" type="motorbike"/>
    <trip id="ma_250" depart="100.00" from="486510207" to="118673944#4" type="motorbike"/>
    <trip id="ma_251" depart="100.40" from="-371908669#0" to="695446625#1" type="motorbike"/>
    <trip id="ma_252" depart="100.80" from="1280219259#0" to="910359052#8" type="motorbike"/>
    <trip id="ma_253" depart="101.20" from="-39368999#0" to="-641397123#1" type="motorbike"/>
    <trip id="ma_254" depart="101.60" from="295408459#5" to="695490087#1" type="motorbike"/>
    <trip id="ma_255" depart="102.00" from="1282340736" to="1034028677#0" type="motorbike"/>
    <trip id="ma_256" depart="102.40" from="35950864#0" to="1282340733#1" type="motorbike"/>
    <trip id="ma_257" depart="102.80" from="118575972#3" to="35950925#0" type="motorbike"/>
    <trip id="ma_258" depart="103.20" from="295449627#0" to="-344692547#0" type="motorbike"/>
    <trip id="ma_259" depart="103.60" from="295408460#2" to="695502614" type="motorbike"/>
    <trip id="ma_260" depart="104.00" from="-828678787#2" to="1280219258#0" type="motorbike"/>
    <trip id="ma_261" depart="104.40" from="295408452#16" to="295408462#0" type="motorbike"/>
    <trip id="ma_262" depart="104.80" from="-372467085#1" to="828724700#3" type="motorbike"/>
    <trip id="ma_263" depart="105.20" from="698936203#3" to="695295267#0" type="motorbike"/>
    <trip id="ma_264" depart="105.60" from="295408452#0" to="302751282-AddedOnRampEdge" type="motorbike"/>
    <trip id="ma_265" depart="106.00" from="694775628#2" to="-39368999#5" type="motorbike"/>
    <trip id="ma_266" depart="106.40" from="35950897#13" to="35950897#15" type="motorbike"/>
    <trip id="ma_267" depart="106.80" from="1282340737" to="1034028677#1" type="motorbike"/>
    <trip id="ma_268" depart="107.20" from="694775628#0" to="302751284#3" type="motorbike"/>
    <trip id="ma_269" depart="107.60" from="910359052#7" to="199383481-AddedOnRampEdge" type="motorbike"/>
    <trip id="ma_270" depart="108.00" from="694583900#0-AddedOffRampEdge" to="695510007#0" type="motorbike"/>
    <trip id="ma_271" depart="108.40" from="295408452#16-AddedOffRampEdge" to="695502611#1" type="motorbike"/>
    <trip id="ma_272" depart="108.80" from="1280219260#0" to="302751282" type="motorbike"/>
    <trip id="ma_273" depart="109.20" from="160628085#0" to="695030266" type="motorbike"/>
    <trip id="ma_274" depart="109.60" from="696169688" to="-1446472838" type="motorbike"/>
    <trip id="ma_275" depart="110.00" from="1034027336#1" to="118575975#4" type="motorbike"/>
    <trip id="ma_276" depart="110.40" from="910359052#0" to="698046188#1" type="motorbike"/>
    <trip id="ma_277" depart="110.80" from="694830396" to="694774375#0" type="motorbike"/>
    <trip id="ma_278" depart="111.20" from="695025560#0" to="35950897#6" type="motorbike"/>
    <trip id="ma_279" depart="111.60" from="295408459#3" to="1280089201#0" type="motorbike"/>
    <trip id="ma_280" depart="112.00" from="-118688839#0" to="35950897#13" type="motorbike"/>
    <trip id="ma_281" depart="112.40" from="689583171#6" to="697200467#1" type="motorbike"/>
    <trip id="ma_282" depart="112.80" from="694830395#0" to="910359052#8" type="motorbike"/>
    <trip id="ma_283" depart="113.20" from="1282340737" to="695502611#0" type="motorbike"/>
    <trip id="ma_284" depart="113.60" from="828724754#0" to="302751282" type="motorbike"/>
    <trip id="ma_285" depart="114.00" from="694775628#2" to="372467083#0" type="motorbike"/>
    <trip id="ma_286" depart="114.40" from="-39368999#9" to="408161672#0" type="motorbike"/>
    <trip id="ma_287" depart="114.80" from="693885804#0" to="695025562#0" type="motorbike"/>
    <trip id="ma_288" depart="115.20" from="295408462#8" to="1280219260#0" type="motorbike"/>
    <trip id="ma_289" depart="115.60" from="39368999#14" to="295408465#2-AddedOnRampEdge" type="motorbike"/>
    <trip id="ma_290" depart="116.00" from="694598419#1-AddedOnRampEdge" to="1282340736" type="motorbike"/>
    <trip id="ma_291" depart="116.40" from="695502614" to="689583171#7" type="motorbike"/>
    <trip id="ma_292" depart="116.80" from="372464931#3" to="1034028675#2" type="motorbike"/>
    <trip id="ma_293" depart="117.20" from="295408461#0" to="695504114#1" type="motorbike"/>
    <trip id="ma_294" depart="117.60" from="676465939#0" to="695504114#0" type="motorbike"/>
    <trip id="ma_295" depart="118.00" from="295408460#3" to="-828678785#2" type="motorbike"/>
    <trip id="ma_296" depart="118.40" from="295408462#8" to="199383481" type="motorbike"/>
    <trip id="ma_297" depart="118.80" from="695490087#1" to="-828678876#1" type="motorbike"/>
    <trip id="ma_298" depart="119.20" from="-372466117#3" to="-676509076#1" type="motorbike"/>
    <trip id="ma_299" depart="119.60" from="-118570164#3" to="695295267#2" type="motorbike"/>
    <trip id="ma_300" depart="120.00" from="-118672299#2" to="673151142#4" type="motorbike"/>
    <trip id="ma_301" depart="120.40" from="-118688839#0" to="828724779#0" type="motorbike"/>
    <trip id="ma_302" depart="120.80" from="35950925#1" to="118672612#1" type="motorbike"/>
    <trip id="ma_303" depart="121.20" from="302739240#3" to="695502611#0" type="motorbike"/>
    <trip id="ma_304" depart="121.60" from="695040552#1" to="295408452#16" type="motorbike"/>
    <trip id="ma_305" depart="122.00" from="695295265#0" to="295408461#9" type="motorbike"/>
    <trip id="ma_306" depart="122.40" from="-561426521" to="698936203#3" type="motorbike"/>
    <trip id="ma_307" depart="122.80" from="1282340733#0" to="-895482900" type="motorbike"/>
    <trip id="ma_308" depart="123.20" from="-828724763#0" to="694601892" type="motorbike"/>
    <trip id="ma_309" depart="123.60" from="695490086#1" to="295408452#5" type="motorbike"/>
    <trip id="ma_310" depart="124.00" from="-372466116#1" to="1034028677#0" type="motorbike"/>