<?xml version="1.0" encoding="UTF-8"?>

<!-- generated on 2026-03-22 01:58:20.491386 by Eclipse SUMO randomTrips.py v1_26_0+0000-fa7df22d7f1
<configuration>
    <net-file value="D:\WeSaveTime-ASEAN\sumo\danang\danang.net.xml"/>
    <additional-files value="D:\WeSaveTime-ASEAN\sumo\danang\danang.vtypes.xml"/>
    <weights-prefix value="D:\WeSaveTime-ASEAN\sumo\danang\danang.weights"/>
    <output-trip-file value="D:\WeSaveTime-ASEAN\sumo\danang\danang.mx_.trips.xml"/>
    <prefix value="mx_"/>
    <trip-attributes value="type=&quot;motorbike2&quot;"/>
    <fringe-factor value="2"/>
    <random value="True"/>
    <remove-loops value="True"/>
    <end value="600.0"/>
    <period value="1.58"/>
</configuration>
-->

<routes xmlns:xsi="http://www.w3.org/2001/XMLSchema-instance" xsi:noNamespaceSchemaLocation="http://sumo.dlr.de/xsd/routes_file.xsd">
    <trip id="mx_0" depart="0.00" from="-118673944#3" to="698936203#9" type="motorbike2"/>
    <trip id="mx_1" depart="1.58" from="118573606#10" to="910359052#3" type="motorbike2"/>
    <trip id="mx_2" depart="3.16" from="35950868#37" to="295408461#9" type="motorbike2"/>
    <trip id="mx_3" depart="4.74" from="695502611#0" to="695025560#0" type="motorbike2"/>
    <trip id="mx_4" depart="6.32" from="405962812#1" to="779462187#1" type="motorbike2"/>
    <trip id="mx_5" depart="7.90" from="642048875#5" to="-118575975#2" type="motorbike2"/>
    <trip id="mx_6" depart="9.48" from="828724743" to="408161670#17" type="motorbike2"/>
    <trip id="mx_7" depart="11.06" from="695496042#0" to="-39368999#14" type="motorbike2"/>
    <trip id="mx_8" depart="12.64" from="-830713108#20" to="642054366" type="motorbike2"/>
    <trip id="mx_9" depart="14.22" from="295408452#9" to="295449627#4" type="motorbike2"/>
    <trip id="mx_10" depart="15.80" from="964171425#2" to="693885803#1" type="motorbike2"/>
    <trip id="mx_11" depart="17.38" from="160628085#2" to="-695446623#0" type="motorbike2"/>
    <trip id="mx_12" depart="18.96" from="-828678744" to="695033474#1" type="motorbike2"/>
    <trip id="mx_13" depart="20.54" from="828678816#1" to="-642054373" type="motorbike2"/>
    <trip id="mx_14" depart="22.12" from="1280219259#0" to="696461022#0" type="motorbike2"/>
    <trip id="mx_15" depart="23.70" from="118573606#2" to="694601892" type="motorbike2"/>
    <trip id="mx_16" depart="25.28" from="118570175" to="695040552#1" type="motorbike2"/>
    <trip id="mx_17" depart="26.86" from="295449625#0" to="697822848#2" type="motorbike2"/>
    <trip id="mx_18" depart="28.44" from="372191360#0" to="828724753" type="motorbike2"/>
    <trip id="mx_19" depart="30.02" from="694600787" to="1279880664#0" type="motorbike2"/>
    <trip id="mx_20" depart="31.60" from="1280219248" to="118570175" type="motorbike2"/>
    <trip id="mx_21" depart="33.18" from="717756677" to="372193085#1" type="motorbike2"/>
    <trip id="mx_22" depart="34.76" from="694530227#1" to="697200467#9" type="motorbike2"/>
    <trip id="mx_23" depart="36.34" from="1034028675#0" to="302751282-AddedOnRampEdge" type="motorbike2"/>
    <trip id="mx_24" depart="37.92" from="-372467084#0" to="1282340716" type="motorbike2"/>
    <trip id="mx_25" depart="39.50" from="-830713111#4" to="624451499" type="motorbike2"/>
    <trip id="mx_26" depart="41.08" from="39368999#1" to="695496042#0" type="motorbike2"/>
    <trip id="mx_27" depart="42.66" from="295408460#2" to="695295267#0" type="motorbike2"/>
    <trip id="mx_28" depart="44.24" from="295408452#11" to="693330103#2" type="motorbike2"/>
    <trip id="mx_29" depart="45.82" from="-562701506#1" to="695496042#1" type="motorbike2"/>
    <trip id="mx_30" depart="47.40" from="964171425#0" to="828724795#0" type="motorbike2"/>
    <trip id="mx_31" depart="48.98" from="303615142#0" to="697200467#11" type="motorbike2"/>
    <trip id="mx_32" depart="50.56" from="295408462#10" to="118575975#0" type="motorbike2"/>
    <trip id="mx_33" depart="52.14" from="-118566872#1" to="1280219250" type="motorbike2"/>
    <trip id="mx_34" depart="53.72" from="694775628#0" to="828678791" type="motorbike2"/>
    <trip id="mx_35" depart="55.30" from="1210918873#0" to="696348477#2" type="motorbike2"/>
    <trip id="mx_36" depart="56.88" from="1279915921" to="828678814#2" type="motorbike2"/>
    <trip id="mx_37" depart="58.46" from="295408461#1" to="1280089222" type="motorbike2"/>
    <trip id="mx_38" depart="60.04" from="-118570147#0" to="689583176#2" type="motorbike2"/>
    <trip id="mx_39" depart="61.62" from="1280219266" to="964171425#3" type="motorbike2"/>
    <trip id="mx_40" depart="63.20" from="-676451738#0" to="1282340733#0" type="motorbike2"/>
    <trip id="mx_41" depart="64.78" from="372220804#14" to="642050078#0" type="motorbike2"/>
    <trip id="mx_42" depart="66.36" from="695025562#1" to="-321069035#0" type="motorbike2"/>
    <trip id="mx_43" depart="67.94" from="693885803#1" to="695026460#0" type="motorbike2"/>
    <trip id="mx_44" depart="69.52" from="399595482#3" to="1279880687#2" type="motorbike2"/>
    <trip id="mx_45" depart="71.10" from="697200467#4" to="35950949#3" type="motorbike2"/>
    <trip id="mx_46" depart="72.68" from="295408452#11" to="1210918873#0" type="motorbike2"/>
    <trip id="mx_47" depart="74.26" from="694768221#3" to="703791944#0" type="motorbike2"/>
    <trip id="mx_48" depart="75.84" from="295128790#10" to="695040105#0" type="motorbike2"/>
    <trip id="mx_49" depart="77.42" from="-676438753#1" to="-561913438#0" type="motorbike2"/>
    <trip id="mx_50" depart="79.00" from="-694800618" to="408161670#13" type="motorbike2"/>
    <trip id="mx_51" depart="80.58" from="1279880688#0" to="695504114#1" type="motorbike2"/>
    <trip id="mx_52" depart="82.16" from="-562701498" to="828724757#1" type="motorbike2"/>
    <trip id="mx_53" depart="83.74" from="1447325744" to="118570167#1" type="motorbike2"/>
    <trip id="mx_54" depart="85.32" from="118673886#1" to="695446625#1" type="motorbike2"/>
    <trip id="mx_55" depart="86.90" from="695295267#0" to="828724692" type="motorbike2"/>
    <trip id="mx_56" depart="88.48" from="-372464935#3" to="1280614505#0" type="motorbike2"/>
    <trip id="mx_57" depart="90.06" from="1280089201#0" to="-676450958#0" type="motorbike2"/>
    <trip id="mx_58" depart="91.64" from="408161670#27" to="118570159#8" type="motorbike2"/>
    <trip id="mx_59" depart="93.22" from="828724714#1" to="408161670#28" type="motorbike2"/>
    <trip id="mx_60" depart="94.80" from="1279915895#0" to="1210918872#0" type="motorbike2"/>
    <trip id="mx_61" depart="96.38" from="1447330815#0" to="698046188#1" type="motorbike2"/>
    <trip id="mx_62" depart="97.96" from="-828678777#0" to="562701502#2" type="motorbike2"/>
    <trip id="mx_63" depart="99.54" from="-1279880662#2" to="1034028677#1" type="motorbike2"/>
    <trip id="mx_64" depart="101.12" from="689583171#0" to="-676465938#0" type="motorbike2"/>
    <trip id="mx_65" depart="102.70" from="689583171#24" to="1280219257#0" type="motorbike2"/>
    <trip id="mx_66" depart="104.28" from="486510207" to="118673929#7" type="motorbike2"/>
    <trip id="mx_67" depart="105.86" from="295128790#3" to="1279880688#5" type="motorbike2"/>
    <trip id="mx_68" depart="107.44" from="-676465938#0" to="-1458964293" type="motorbike2"/>
    <trip id="mx_69" depart="109.02" from="693885804#0" to="295408452#5" type="motorbike2"/>
    <trip id="mx_70" depart="110.60" from="693885804#2" to="-118573602" type="motorbike2"/>
    <trip id="mx_71" depart="112.18" from="676509076#0" to="695025560#0" type="motorbike2"/>
    <trip id="mx_72" depart="113.76" from="694600787" to="828678810#4" type="motorbike2"/>
    <trip id="mx_73" depart="115.34" from="697822848#0" to="295408465#2-AddedOnRampEdge" type="motorbike2"/>
    <trip id="mx_74" depart="116.92" from="830713111#7" to="295408452#5" type="motorbike2"/>
    <trip id="mx_75" depart="118.50" from="-562701498" to="35950868#36" type="motorbike2"/>
    <trip id="mx_76" depart="120.08" from="964171425#4" to="830713108#13" type="motorbike2"/>
    <trip id="mx_77" depart="121.66" from="697200467#10" to="39368999#21" type="motorbike2"/>
    <trip id="mx_78" depart="123.24" from="1280614504#0" to="295408452#5" type="motorbike2"/>
    <trip id="mx_79" depart="124.82" from="828724767#0" to="-118575975#3" type="motorbike2"/>
    <trip id="mx_80" depart="126.40" from="295449625#1" to="562701500" type="motorbike2"/>
    <trip id="mx_81" depart="127.98" from="1279915921" to="199383481-AddedOnRampEdge" type="motorbike2"/>
    <trip id="mx_82" depart="129.56" from="372467078#3" to="1280219261" type="motorbike2"/>
    <trip id="mx_83" depart="131.14" from="-35950868#14" to="-708004447" type="motorbike2"/>
    <trip id="mx_84" depart="132.72" from="-408161669#3" to="964171425#3" type="motorbike2"/>
    <trip id="mx_85" depart="134.30" from="693885802#2" to="676439266" type="motorbike2"/>
    <trip id="mx_86" depart="135.88" from="118567494" to="561426521" type="motorbike2"/>
    <trip id="mx_87" depart="137.46" from="-35950883#6" to="35950925#0" type="motorbike2"/>
    <trip id="mx_88" depart="139.04" from="-676450957" to="1279880688#2" type="motorbike2"/>
    <trip id="mx_89" depart="140.62" from="694530227#10" to="-118673929#0" type="motorbike2"/>
    <trip id="mx_90" depart="142.20" from="964171425#5" to="118672607#0" type="motorbike2"/>
    <trip id="mx_91" depart="143.78" from="695502611#1" to="-828724758#0" type="motorbike2"/>
    <trip id="mx_92" depart="145.36" from="828724821#1" to="408161669#14" type="motorbike2"/>
    <trip id="mx_93" depart="146.94" from="828678773#0" to="694530227#2" type="motorbike2"/>
    <trip id="mx_94" depart="148.52" from="695295267#0" to="-828678790" type="motorbike2"/>
    <trip id="mx_95" depart="150.10" from="-35950868#28" to="-830713111#1" type="motorbike2"/>
    <trip id="mx_96" depart="151.68" from="295408462#10" to="35950897#13" type="motorbike2"/>
    <trip id="mx_97" depart="153.26" from="1280219257#1" to="295408465#0" type="motorbike2"/>
    <trip id="mx_98" depart="154.84" from="828678769#1" to="-35950959#4" type="motorbike2"/>
    <trip id="mx_99" depart="156.42" from="-642086911" to="-694715297" type="motorbike2"/>
    <trip id="mx_100" depart="158.00" from="1279880663#0" to="160628085#0" type="motorbike2"/>
    <trip id="mx_101" depart="159.58" from="35950949#1" to="828678787#2" type="motorbike2"/>
    <trip id="mx_102" depart="161.16" from="372464936" to="295408465#1" type="motorbike2"/>
    <trip id="mx_103" depart="162.74" from="118673892#0" to="118570159#3" type="motorbike2"/>
    <trip id="mx_104" depart="164.32" from="1282715048#0" to="-828678817#3" type="motorbike2"/>
    <trip id="mx_105" depart="165.90" from="1280089222" to="118570175" type="motorbike2"/>
    <trip id="mx_106" depart="167.48" from="1124342338#0" to="694767769" type="motorbike2"/>
    <trip id="mx_107" depart="169.06" from="-1282340753#1" to="695033474#1" type="motorbike2"/>
    <trip id="mx_108" depart="170.64" from="673151196" to="754061373" type="motorbike2"/>
    <trip id="mx_109" depart="172.22" from="35950868#23" to="-35950864#2" type="motorbike2"/>
    <trip id="mx_110" depart="173.80" from="-118672607#3" to="695496039#2" type="motorbike2"/>
    <trip id="mx_111" depart="175.38" from="697200467#10" to="-372464931#0" type="motorbike2"/>
    <trip id="mx_112" depart="176.96" from="697200467#10" to="910359052#0" type="motorbike2"/>
    <trip id="mx_113" depart="178.54" from="694530227#8" to="295408452#6" type="motorbike2"/>
    <trip id="mx_114" depart="180.12" from="1280614485" to="695496042#1" type="motorbike2"/>
    <trip id="mx_115" depart="181.70" from="-895422814" to="35950897#0" type="motorbike2"/>
    <trip id="mx_116" depart="183.28" from="295408452#5" to="1280219246" type="motorbike2"/>
    <trip id="mx_117" depart="184.86" from="-118570168#4" to="-118672607#0" type="motorbike2"/>
    <trip id="mx_118" depart="186.44" from="703791944#3" to="408161670#21" type="motorbike2"/>
    <trip id="mx_119" depart="188.02" from="964171425#5" to="697200467#7" type="motorbike2"/>
    <trip id="mx_120" depart="189.60" from="1034027336#1" to="1279880665#1" type="motorbike2"/>
    <trip id="mx_121" depart="191.18" from="693885802#2" to="1279915895#1" type="motorbike2"/>
    <trip id="mx_122" depart="192.76" from="118575969#0" to="831070297#0" type="motorbike2"/>
    <trip id="mx_123" depart="194.34" from="643237805" to="689583171#23" type="motorbike2"/>
    <trip id="mx_124" depart="195.92" from="295449627#3" to="295408468#5" type="motorbike2"/>
    <trip id="mx_125" depart="197.50" from="695496042#0" to="302751282-AddedOnRampEdge" type="motorbike2"/>
    <trip id="mx_126" depart="199.08" from="-694297236" to="694775628#0" type="motorbike2"/>
    <trip id="mx_127" depart="200.66" from="828678804" to="695504114#4" type="motorbike2"/>
    <trip id="mx_128" depart="202.24" from="695510007#0" to="624457036#0" type="motorbike2"/>
    <trip id="mx_129" depart="203.82" from="696461019" to="-35950868#36" type="motorbike2"/>
    <trip id="mx_130" depart="205.40" from="1280219246" to="693885802#0" type="motorbike2"/>
    <trip id="mx_131" depart="206.98" from="-641077473#0" to="118672608#1" type="motorbike2"/>
    <trip id="mx_132" depart="208.56" from="828724684#1" to="-118570183#2" type="motorbike2"/>
    <trip id="mx_133" depart="210.14" from="295408477" to="695446625#3" type="motorbike2"/>
    <trip id="mx_134" depart="211.72" from="-828724700#1" to="1471511793#1" type="motorbike2"/>
    <trip id="mx_135" depart="213.30" from="-642098832#0" to="35950831#0" type="motorbike2"/>
    <trip id="mx_136" depart="214.88" from="695295267#0" to="828678741#1" type="motorbike2"/>
    <trip id="mx_137" depart="216.46" from="964171425#5" to="343236557#1" type="motorbike2"/>
    <trip id="mx_138" depart="218.04" from="695025559" to="-118567492#1" type="motorbike2"/>
    <trip id="mx_139" depart="219.62" from="896418273#1" to="118570159#16" type="motorbike2"/>
    <trip id="mx_140" depart="221.20" from="-118688839#7" to="676453141" type="motorbike2"/>
    <trip id="mx_141" depart="222.78" from="-372220804#29" to="372460851#0" type="motorbike2"/>
    <trip id="mx_142" depart="224.36" from="295449627#0" to="295408465#2-AddedOnRampEdge" type="motorbike2"/>
    <trip id="mx_143" depart="225.94" from="700940430#1" to="-641074760#1" type="motorbike2"/>
    <trip id="mx_144" depart="227.52" from="118566872#8" to="695040105#3" type="motorbike2"/>
    <trip id="mx_145" depart="229.10" from="695040105#0" to="295408465#2-AddedOnRampEdge" type="motorbike2"/>
    <trip id="mx_146" depart="230.68" from="1034027336#0" to="696168834#1" type="motorbike2"/>
    <trip id="mx_147" depart="232.26" from="-118575968#1" to="-828678810#3" type="motorbike2"/>
    <trip id="mx_148" depart="233.84" from="408161670#16" to="695027208" type="motorbike2"/>
    <trip id="mx_149" depart="235.42" from="-1160396738" to="295408463#0" type="motorbike2"/>
    <trip id="mx_150" depart="237.00" from="1034028675#2" to="695502614" type="motorbike2"/>
    <trip id="mx_151" depart="238.58" from="1426764507#2" to="-830713108#10" type="motorbike2"/>
    <trip id="mx_152" depart="240.16" from="118567886#0" to="1279880688#3" type="motorbike2"/>
    <trip id="mx_153" depart="241.74" from="295408459#0" to="-694715297" type="motorbike2"/>
    <trip id="mx_154" depart="243.32" from="-828678817#3" to="695504114#1" type="motorbike2"/>
    <trip id="mx_155" depart="244.90" from="1279880663#1" to="695502613" type="motorbike2"/>
    <trip id="mx_156" depart="246.48" from="-895476846" to="1279915921" type="motorbike2"/>
    <trip id="mx_157" depart="248.06" from="693885803#0" to="295408462#10" type="motorbike2"/>
    <trip id="mx_158" depart="249.64" from="624451499" to="399595482#6" type="motorbike2"/>
    <trip id="mx_159" depart="251.22" from="-1160316964" to="1391330070#6" type="motorbike2"/>
    <trip id="mx_160" depart="252.80" from="-676491483#1" to="39368999#14" type="motorbike2"/>
    <trip id="mx_161" depart="254.38" from="828724786" to="-408162778#10" type="motorbike2"/>
    <trip id="mx_162" depart="255.96" from="1382225982" to="828724718" type="motorbike2"/>
    <trip id="mx_163" depart="257.54" from="-828678909#1" to="1282340718" type="motorbike2"/>
    <trip id="mx_164" depart="259.12" from="-408162778#10" to="302751282-AddedOnRampEdge" type="motorbike2"/>
    <trip id="mx_165" depart="260.70" from="1279880663#1" to="-831070297#0" type="motorbike2"/>
    <trip id="mx_166" depart="262.28" from="372589035" to="828678859" type="motorbike2"/>
    <trip id="mx_167" depart="263.86" from="695295267#0" to="-708004447" type="motorbike2"/>
    <trip id="mx_168" depart="265.44" from="408161670#16" to="694530227#0" type="motorbike2"/>
    <trip id="mx_169" depart="267.02" from="118674615#2" to="1282340737" type="motorbike2"/>
    <trip id="mx_170" depart="268.60" from="624451499" to="695490086#1" type="motorbike2"/>
    <trip id="mx_171" depart="270.18" from="1280089201#0" to="295408465#1" type="motorbike2"/>
    <trip id="mx_172" depart="271.76" from="695504114#4" to="35950897#15" type="motorbike2"/>
    <trip id="mx_173" depart="273.34" from="1279880662#1" to="1280089199" type="motorbike2"/>
    <trip id="mx_174" depart="274.92" from="1279880688#5" to="689583171#12" type="motorbike2"/>
    <trip id="mx_175" depart="276.50" from="375346553" to="408161670#28" type="motorbike2"/>
    <trip id="mx_176" depart="278.08" from="828678770" to="118688839#1" type="motorbike2"/>
    <trip id="mx_177" depart="279.66" from="695502614" to="118674615#0" type="motorbike2"/>
    <trip id="mx_178" depart="281.24" from="-35950868#14" to="1280614485" type="motorbike2"/>
    <trip id="mx_179" depart="282.82" from="696168834#1" to="295408463#0" type="motorbike2"/>
    <trip id="mx_180" depart="284.40" from="641073883#0" to="408161670#20" type="motorbike2"/>
    <trip id="mx_181" depart="285.98" from="118570147#1" to="-828678787#0" type="motorbike2"/>
    <trip id="mx_182" depart="287.56" from="295408452#16-AddedOffRampEdge" to="295408452#10" type="motorbike2"/>
    <trip id="mx_183" depart="289.14" from="830713112#1" to="779462187#1" type="motorbike2"/>
    <trip id="mx_184" depart="290.72" from="695502614" to="-118672633#0" type="motorbike2"/>
    <trip id="mx_185" depart="292.30" from="695295267#2" to="408161670#13" type="motorbike2"/>
    <trip id="mx_186" depart="293.88" from="830713111#2" to="408161670#20" type="motorbike2"/>
    <trip id="mx_187" depart="295.46" from="828724795#1" to="1280089222" type="motorbike2"/>
    <trip id="mx_188" depart="297.04" from="828724768#3" to="295408461#4" type="motorbike2"/>
    <trip id="mx_189" depart="298.62" from="624451490#0" to="399595482#8" type="motorbike2"/>
    <trip id="mx_190" depart="300.20" from="698936203#10" to="118567495#0" type="motorbike2"/>
    <trip id="mx_191" depart="301.78" from="910359052#8" to="118672607#3" type="motorbike2"/>
    <trip id="mx_192" depart="303.36" from="-35950868#36" to="408162778#2" type="motorbike2"/>
    <trip id="mx_193" depart="304.94" from="-828678741#1" to="1210918872#1" type="motorbike2"/>
    <trip id="mx_194" depart="306.52" from="689583171#19" to="1280089201#2" type="motorbike2"/>
    <trip id="mx_195" depart="308.10" from="408161670#28" to="694530227#2" type="motorbike2"/>
    <trip id="mx_196" depart="309.68" from="118575975#2" to="372220804#30" type="motorbike2"/>
    <trip id="mx_197" depart="311.26" from="-828724758#0" to="118672619#0" type="motorbike2"/>
    <trip id="mx_198" depart="312.84" from="295408464#0" to="1034028678" type="motorbike2"/>
    <trip id="mx_199" depart="314.42" from="-39368999#3" to="-642048875#4" type="motorbike2"/>
    <trip id="mx_200" depart="316.00" from="1471511793#0" to="-372463005" type="motorbike2"/>
    <trip id="mx_201" depart="317.58" from="1282340753#0" to="295408468#0" type="motorbike2"/>
    <trip id="mx_202" depart="319.16" from="-372220804#23" to="828724695" type="motorbike2"/>
    <trip id="mx_203" depart="320.74" from="-828678814#2" to="698046190" type="motorbike2"/>
    <trip id="mx_204" depart="322.32" from="118567494" to="-641423230" type="motorbike2"/>
    <trip id="mx_205" depart="323.90" from="694530227#2" to="295408460#2" type="motorbike2"/>
    <trip id="mx_206" depart="325.48" from="-828724727" to="689583170#0" type="motorbike2"/>
    <trip id="mx_207" depart="327.06" from="964171425#0" to="-695446623#0" type="motorbike2"/>
    <trip id="mx_208" depart="328.64" from="694772625#0" to="118566872#8" type="motorbike2"/>
    <trip id="mx_209" depart="330.22" from="694530227#0" to="-676438752#2" type="motorbike2"/>
    <trip id="mx_210" depart="331.80" from="1210918872#0" to="910359052#7" type="motorbike2"/>
    <trip id="mx_211" depart="333.38" from="295408460#2" to="406779270" type="motorbike2"/>
    <trip id="mx_212" depart="334.96" from="35950942#2" to="-828678778" type="motorbike2"/>
    <trip id="mx_213" depart="336.54" from="118570159#16" to="697200467#4" type="motorbike2"/>
    <trip id="mx_214" depart="338.12" from="295408452#16-AddedOffRampEdge" to="1446454670" type="motorbike2"/>
    <trip id="mx_215" depart="339.70" from="302751286#2" to="693406007#0" type="motorbike2"/>
    <trip id="mx_216" depart="341.28" from="624451490#0" to="1279915897" type="motorbike2"/>
    <trip id="mx_217" depart="342.86" from="695496039#2" to="693885804#2" type="motorbike2"/>
    <trip id="mx_218" depart="344.44" from="1279880688#0" to="-828724694#0" type="motorbike2"/>
    <trip id="mx_219" depart="346.02" from="1279880688#2" to="-35950868#3" type="motorbike2"/>
    <trip id="mx_220" depart="347.60" from="1279880688#3" to="1280219257#1" type="motorbike2"/>
    <trip id="mx_221" depart="349.18" from="1034028677#0" to="1280219265" type="motorbike2"/>
    <trip id="mx_222" depart="350.76" from="1280219259#1" to="695025562#0" type="motorbike2"/>
    <trip id="mx_223" depart="352.34" from="697200467#4-AddedOffRampEdge" to="1034028676#0" type="motorbike2"/>
    <trip id="mx_224" depart="353.92" from="1210918873#0" to="295128790#10" type="motorbike2"/>
    <trip id="mx_225" depart="355.50" from="1034028676#1" to="696169688" type="motorbike2"/>
    <trip id="mx_226" depart="357.08" from="371907294#0" to="676714129" type="motorbike2"/>
    <trip id="mx_227" depart="358.66" from="118570164#1" to="408161670#17" type="motorbike2"/>
    <trip id="mx_228" depart="360.24" from="1392384120#3" to="1279880688#0" type="motorbike2"/>
    <trip id="mx_229" depart="361.82" from="-828678748" to="964171425#6" type="motorbike2"/>
    <trip id="mx_230" depart="363.40" from="-372589032" to="1279915896#0" type="motorbike2"/>
    <trip id="mx_231" depart="364.98" from="118673929#3" to="695490087#1" type="motorbike2"/>
    <trip id="mx_232" depart="366.56" from="561667998" to="689583171#22" type="motorbike2"/>
    <trip id="mx_233" depart="368.14" from="-302751295#6" to="695030266" type="motorbike2"/>
    <trip id="mx_234" depart="369.72" from="695025560#0" to="35950925#6" type="motorbike2"/>
    <trip id="mx_235" depart="371.30" from="673151142#3" to="697200467#1" type="motorbike2"/>
    <trip id="mx_236" depart="372.88" from="1280614485" to="-371909428" type="motorbike2"/>
    <trip id="mx_237" depart="374.46" from="160628085#1" to="-641074760#0" type="motorbike2"/>
    <trip id="mx_238" depart="376.04" from="1160316964" to="1418093030" type="motorbike2"/>
    <trip id="mx_239" depart="377.62" from="35950959#0" to="1280219257#2" type="motorbike2"/>
    <trip id="mx_240" depart="379.20" from="-676453140#2" to="693416739#0" type="motorbike2"/>
    <trip id="mx_241" depart="380.78" from="-35950864#7" to="695295267#0" type="motorbike2"/>
    <trip id="mx_242" depart="382.36" from="-830713114#2" to="1279880688#7" type="motorbike2"/>
    <trip id="mx_243" depart="383.94" from="1034028675#2" to="695025559" type="motorbike2"/>
    <trip id="mx_244" depart="385.52" from="-643237806#0" to="779462187#1" type="motorbike2"/>
    <trip id="mx_245" depart="387.10" from="35950897#0" to="302739240#0" type="motorbike2"/>
    <trip id="mx_246" depart="388.68" from="1279915897" to="-828678810#3" type="motorbike2"/>
    <trip id="mx_247" depart="390.26" from="302751295#17" to="703791943#2" type="motorbike2"/>
    <trip id="mx_248" depart="391.84" from="39368999#1" to="-828678806" type="motorbike2"/>
    <trip id="mx_249" depart="393.42" from="35950882#11" to="693885803#27" type="motorbike2"/>
    <trip id="mx_250" depart="395.00" from="256668740#0" to="118570175" type="motorbike2"/>
    <trip id="mx_251" depart="396.58" from="828724758#0" to="-641077471" type="motorbike2"/>
    <trip id="mx_252" depart="398.16" from="828678747" to="118570159#15" type="motorbike2"/>
    <trip id="mx_253" depart="399.74" from="295408468#6" to="408161672#4" type="motorbike2"/>
    <trip id="mx_254" depart="401.32" from="-295386152#3" to="673151142#3" type="motorbike2"/>
    <trip id="mx_255" depart="402.90" from="118575972#0" to="695510007#1" type="motorbike2"/>
    <trip id="mx_256" depart="404.48" from="693885804#2" to="-828678815" type="motorbike2"/>
    <trip id="mx_257" depart="406.06" from="-700940430#0" to="-828724761" type="motorbike2"/>
    <trip id="mx_258" depart="407.64" from="696461019" to="-118672606#9" type="motorbike2"/>
    <trip id="mx_259" depart="409.22" from="295449619#0" to="1279915898#9" type="motorbike2"/>
    <trip id="mx_260" depart="410.80" from="560329291#2" to="-35950868#8" type="motorbike2"/>
    <trip id="mx_261" depart="412.38" from="-1124338485#0" to="-35950868#25" type="motorbike2"/>
    <trip id="mx_262" depart="413.96" from="717756678#1" to="1280089222" type="motorbike2"/>
    <trip id="mx_263" depart="415.54" from="695295267#0" to="199383481-AddedOnRampEdge" type="motorbike2"/>
    <trip id="mx_264" depart="417.12" from="964171425#6" to="295408452#6" type="motorbike2"/>
    <trip id="mx_265" depart="418.70" from="1282715053" to="35950897#6" type="motorbike2"/>
    <trip id="mx_266" depart="420.28" from="694530227#12" to="1282340717#2" type="motorbike2"/>
    <trip id="mx_267" depart="421.86" from="302751287" to="1034028675#0" type="motorbike2"/>
    <trip id="mx_268" depart="423.44" from="-118672299#2" to="295408465#1" type="motorbike2"/>
    <trip id="mx_269" depart="425.02" from="-118575966" to="610420095#8" type="motorbike2"/>
    <trip id="mx_270" depart="426.60" from="35950897#0" to="118573603#2" type="motorbike2"/>
    <trip id="mx_271" depart="428.18" from="694511395#1" to="1034028675#0" type="motorbike2"/>
    <trip id="mx_272" depart="429.76" from="408161672#5" to="408161670#27" type="motorbike2"/>
    <trip id="mx_273" depart="431.34" from="697200467#10" to="35950942#1" type="motorbike2"/>
    <trip id="mx_274" depart="432.92" from="828678744" to="561913438#2" type="motorbike2"/>
    <trip id="mx_275" depart="434.50" from="1282340736" to="118570169#2" type="motorbike2"/>
    <trip id="mx_276" depart="436.08" from="1210918873#0" to="694530227#10" type="motorbike2"/>
    <trip id="mx_277" depart="437.66" from="1280219247#1" to="372589037" type="motorbike2"/>
    <trip id="mx_278" depart="439.24" from="-641077469" to="703791943#0" type="motorbike2"/>
    <trip id="mx_279" depart="440.82" from="-372220804#16" to="302737424#0" type="motorbike2"/>
    <trip id="mx_280" depart="442.40" from="-676453142#1" to="295449627#2" type="motorbike2"/>
    <trip id="mx_281" depart="443.98" from="-830713113#4" to="35950959#1" type="motorbike2"/>
    <trip id="mx_282" depart="445.56" from="295128790#3" to="295408461#9" type="motorbike2"/>
    <trip id="mx_283" depart="447.14" from="295408452#8" to="642086910" type="motorbike2"/>
    <trip id="mx_284" depart="448.72" from="697200467#0" to="-641120965#0" type="motorbike2"/>
    <trip id="mx_285" depart="450.30" from="641073883#2" to="295408452#1" type="motorbike2"/>
    <trip id="mx_286" depart="451.88" from="295408464#0-AddedOffRampEdge" to="694808615#0" type="motorbike2"/>
    <trip id="mx_287" depart="453.46" from="295408460#2" to="399626766#9" type="motorbike2"/>
    <trip id="mx_288" depart="455.04" from="697200467#7" to="35950897#0" type="motorbike2"/>
    <trip id="mx_289" depart="456.62" from="828678793#1" to="828724703" type="motorbike2"/>
    <trip id="mx_290" depart="458.20" from="35950897#10" to="641397119#1" type="motorbike2"/>
    <trip id="mx_291" depart="459.78" from="35950897#13" to="35950952#10" type="motorbike2"/>
    <trip id="mx_292" depart="461.36" from="-39368999#13" to="35950897#0" type="motorbike2"/>
    <trip id="mx_293" depart="462.94" from="828724699#1" to="408161672#5" type="motorbike2"/>
    <trip id="mx_294" depart="464.52" from="910359052#3" to="118570159#6" type="motorbike2"/>
    <trip id="mx_295" depart="466.10" from="828724718" to="372220804#17" type="motorbike2"/>
    <trip id="mx_296" depart="467.68" from="256668722" to="1034028675#0" type="motorbike2"/>
    <trip id="mx_297" depart="469.26" from="408161672#4" to="-372466118" type="motorbike2"/>
    <trip id="mx_298" depart="470.84" from="-39368999#8" to="-828724726#1" type="motorbike2"/>
    <trip id="mx_299" depart="472.42" from="35950864#8" to="375346553" type="motorbike2"/>
    <trip id="mx_300" depart="474.00" from="694830397" to="1279880664#1" type="motorbike2"/>
    <trip id="mx_301" depart="475.58" from="373009311#2" to="695030266" type="motorbike2"/>
    <trip id="mx_302" depart="477.16" from="408161670#20" to="302751282-AddedOnRampEdge" type="motorbike2"/>
    <trip id="mx_303" depart="478.74" from="-39368999#5" to="295408463#0" type="motorbike2"/>
    <trip id="mx_304" depart="480.32" from="1210918872#0" to="695025562#0" type="motorbike2"/>
    <trip id="mx_305" depart="481.90" from="689583171#11" to="295408452#10" type="motorbike2"/>
    <trip id="mx_306" depart="483.48" from="1279880662#2" to="118575975#0" type="motorbike2"/>
    <trip id="mx_307" depart="485.06" from="295408468#5" to="35950925#5" type="motorbike2"/>
    <trip id="mx_308" depart="486.64" from="-118570183#1" to="-118570174#1" type="motorbike2"/>