<?xml version="1.0" encoding="UTF-8"?>

<!-- generated on 2026-03-24 14:37:07.636297 by Eclipse SUMO randomTrips.py v1_26_0+0000-fa7df22d7f1
<configuration>
    <net-file value="D:\WeSaveTime-ASEAN\sumo\danang\danang.net.xml"/>
    <additional-files value="D:\WeSaveTime-ASEAN\sumo\danang\danang.vtypes.xml"/>
    <weights-prefix value="D:\WeSaveTime-ASEAN\sumo\danang\danang.weights"/>
    <output-trip-file value="D:\WeSaveTime-ASEAN\sumo\danang\danang.dv_.trips.xml"/>
    <prefix value="dv_"/>
    <trip-attributes value="type=&quot;delivery&quot;"/>
    <fringe-factor value="5"/>
    <random value="True"/>
    <remove-loops value="True"/>
    <end value="600.0"/>
    <period value="6.67"/>
</configuration>
-->

<routes xmlns:xsi="http://www.w3.org/2001/XMLSchema-instance" xsi:noNamespaceSchemaLocation="http://sumo.dlr.de/xsd/routes_file.xsd">
    <trip id="dv_0" depart="0.00" from="-828724815" to="295408465#2" type="delivery"/>
    <trip id="dv_1" depart="6.67" from="695295267#0" to="695295267#2" type="delivery"/>
    <trip id="dv_2" depart="13.34" from="-118570149#5" to="-302751295#10" type="delivery"/>
    <trip id="dv_3" depart="20.01" from="1280614504#0" to="964171425#6" type="delivery"/>
    <trip id="dv_4" depart="26.68" from="295449625#0" to="-118570168#2" type="delivery"/>
    <trip id="dv_5" depart="33.35" from="295449627#2" to="673151142#5" type="delivery"/>
    <trip id="dv_6" depart="40.02" from="295408463#0" to="779462187#1" type="delivery"/>
    <trip id="dv_7" depart="46.69" from="408161670#17" to="693885804#0" type="delivery"/>
    <trip id="dv_8" depart="53.36" from="35950897#0" to="-676509076#0" type="delivery"/>
    <trip id="dv_9" depart="60.03" from="1280219266" to="673151142#3" type="delivery"/>
    <trip id="dv_10" depart="66.70" from="-372220804#3" to="676489596#2" type="delivery"/>
    <trip id="dv_11" depart="73.37" from="1124338482" to="828678837#0" type="delivery"/>
    <trip id="dv_12" depart="80.04" from="1280614504#0" to="199383481" type="delivery"/>
    <trip id="dv_13" depart="86.71" from="1034028677#0" to="295128790#4" type="delivery"/>
    <trip id="dv_14" depart="93.38" from="-372589135#0" to="1280614505#0" type="delivery"/>
    <trip id="dv_15" depart="100.05" from="693416739#0" to="-828724763#5" type="delivery"/>
    <trip id="dv_16" depart="106.72" from="693330103#0" to="1280219261" type="delivery"/>
    <trip id="dv_17" depart="113.39" from="696169688" to="302739240#3" type="delivery"/>
    <trip id="dv_18" depart="120.06" from="673151200#3" to="1280219258#0" type="delivery"/>
    <trip id="dv_19" depart="126.73" from="35950897#13" to="964171425#2" type="delivery"/>
    <trip id="dv_20" depart="133.40" from="-39368999#3" to="1280219267" type="delivery"/>
    <trip id="dv_21" depart="140.07" from="118570181#0" to="35950882#9" type="delivery"/>
    <trip id="dv_22" depart="146.74" from="39368999#21" to="199383481-AddedOnRampEdge" type="delivery"/>
    <trip id="dv_23" depart="153.41" from="1280614504#1" to="695040105#3" type="delivery"/>
    <trip id="dv_24" depart="160.08" from="828678912#0" to="118673921#4" type="delivery"/>
    <trip id="dv_25" depart="166.75" from="1280219259#0" to="695504114#0" type="delivery"/>
    <trip id="dv_26" depart="173.42" from="676453138#0" to="695496039#3" type="delivery"/>
    <trip id="dv_27" depart="180.09" from="1210918872#1" to="295408468#5" type="delivery"/>
    <trip id="dv_28" depart="186.76" from="964171425#5" to="828724723" type="delivery"/>
    <trip id="dv_29" depart="193.43" from="673151198#1" to="694598419#1-AddedOnRampEdge" type="delivery"/>
    <trip id="dv_30" depart="200.10" from="-828678911" to="695295268" type="delivery"/>
    <trip id="dv_31" depart="206.77" from="-828678802#0" to="779462187#0" type="delivery"/>
    <trip id="dv_32" depart="213.44" from="35950897#6" to="695510007#0" type="delivery"/>
    <trip id="dv_33" depart="220.11" from="-118672612#0" to="295408452#16-AddedOffRampEdge" type="delivery"/>
    <trip id="dv_34" depart="226.78" from="694598419#0" to="694774375#0" type="delivery"/>
    <trip id="dv_35" depart="233.45" from="-641397123#1" to="118673944#8" type="delivery"/>
    <trip id="dv_36" depart="240.12" from="35950925#2" to="-708004447" type="delivery"/>
    <trip id="dv_37" depart="246.79" from="295449627#0" to="1282340737" type="delivery"/>
    <trip id="dv_38" depart="253.46" from="-828724708" to="698936203#3" type="delivery"/>
    <trip id="dv_39" depart="260.13" from="295408452#16-AddedOffRampEdge" to="408161670#25" type="delivery"/>
    <trip id="dv_40" depart="266.80" from="-118570151#3" to="295408463#0" type="delivery"/>
    <trip id="dv_41" depart="273.47" from="828724751" to="295449627#2" type="delivery"/>
    <trip id="dv_42" depart="280.14" from="697200467#4-AddedOffRampEdge" to="694600787" type="delivery"/>
    <trip id="dv_43" depart="286.81" from="697200467#4-AddedOffRampEdge" to="696169688" type="delivery"/>
    <trip id="dv_44" depart="293.48" from="964171425#6" to="408161672#1" type="delivery"/>
    <trip id="dv_45" depart="300.15" from="828678777#1" to="693885804#0" type="delivery"/>
    <trip id="dv_46" depart="306.82" from="697200467#0" to="698046188#1" type="delivery"/>
    <trip id="dv_47" depart="313.49" from="828724745" to="35950864#8" type="delivery"/>
    <trip id="dv_48" depart="320.16" from="641106173" to="-676465939#3" type="delivery"/>
    <trip id="dv_49" depart="326.83" from="35950897#10" to="295408468#4" type="delivery"/>
    <trip id="dv_50" depart="333.50" from="694830396" to="118688839#3" type="delivery"/>
    <trip id="dv_51" depart="340.17" from="-561913438#2" to="295408465#2" type="delivery"/>
    <trip id="dv_52" depart="346.84" from="408161670#13" to="1279915921" type="delivery"/>
    <trip id="dv_53" depart="353.51" from="-39368999#14" to="695496039#0" type="delivery"/>
    <trip id="dv_54" depart="360.18" from="-39368999#12" to="302751282" type="delivery"/>
    <trip id="dv_55" depart="366.85" from="118672606#7" to="1282340736" type="delivery"/>
    <trip id="dv_56" depart="373.52" from="-673151194" to="1034028676#1" type="delivery"/>
    <trip id="dv_57" depart="380.19" from="295408459#1" to="828724726#1" type="delivery"/>
    <trip id="dv_58" depart="386.86" from="-828678803#0" to="-300949143" type="delivery"/>
    <trip id="dv_59" depart="393.53" from="295408463#1" to="408161670#20" type="delivery"/>
    <trip id="dv_60" depart="400.20" from="698936203#3" to="372467078#3" type="delivery"/>
    <trip id="dv_61" depart="406.87" from="1280219267" to="-344692547#2" type="delivery"/>
    <trip id="dv_62" depart="413.54" from="562709015#4" to="1165643358" type="delivery"/>
    <trip id="dv_63" depart="420.21" from="408161670#22" to="295408452#1" type="delivery"/>
    <trip id="dv_64" depart="426.88" from="695446625#1" to="695496042#0" type="delivery"/>
    <trip id="dv_65" depart="433.55" from="-698046190" to="-828678741#1" type="delivery"/>
    <trip id="dv_66" depart="440.22" from="964171425#3" to="1280219259#0" type="delivery"/>
    <trip id="dv_67" depart="446.89" from="828678817#2" to="-118673919#2" type="delivery"/>
    <trip id="dv_68" depart="453.56" from="-118688839#1" to="-1279915898#8" type="delivery"/>
    <trip id="dv_69" depart="460.23" from="-39368999#5" to="1280614505#0" type="delivery"/>
    <trip id="dv_70" depart="466.90" from="694830397" to="697200467#10" type="delivery"/>
    <trip id="dv_71" depart="473.57" from="895477503" to="1034028675#0" type="delivery"/>
    <trip id="dv_72" depart="480.24" from="-828724725#1" to="-828678791" type="delivery"/>
    <trip id="dv_73" depart="486.91" from="693416739#3" to="295408461#10" type="delivery"/>
    <trip id="dv_74" depart="493.58" from="-118570164#4" to="295408452#5" type="delivery"/>
    <trip id="dv_75" depart="500.25" from="694830396" to="35950925#7" type="delivery"/>
    <trip id="dv_76" depart="506.92" from="964171425#0" to="697200467#11" type="delivery"/>
    <trip id="dv_77" depart="513.59" from="-676453142#0" to="35950897#0" type="delivery"/>
    <trip id="dv_78" depart="520.26" from="118570181#0" to="295394152#0" type="delivery"/>
    <trip id="dv_79" depart="526.93" from="-118673944#5" to="-39368999#1" type="delivery"/>
    <trip id="dv_80" depart="533.60" from="295408464#0" to="-372466116#1" type="delivery"/>
    <trip id="dv_81" depart="540.27" from="35950897#13" to="828678773#1" type="delivery"/>
    <trip id="dv_82" depart="546.94" from="828678808" to="695295267#0" type="delivery"/>
    <trip id="dv_83" depart="553.61" from="695496039#1" to="964171425#3" type="delivery"/>
    <trip id="dv_84" depart="560.28" from="295408452#6" to="1280089201#2" type="delivery"/>
    <trip id="dv_85" depart="566.95" from="295449629#1" to="-35950868#22" type="delivery"/>
    <trip id="dv_86" depart="573.62" from="39368999#2" to="-118570151#3" type="delivery"/>
    <trip id="dv_87" depart="580.29" from="-118555049#0" to="-828678814#4" type="delivery"/>
    <trip id="dv_88" depart="586.96" from="663749308#1" to="-689583176#1" type="delivery"/>
    <trip id="dv_89" depart="593.63" from="693885804#2" to="118570168#7" type="delivery"/>
</routes>
