<?xml version="1.0" encoding="UTF-8"?>

<!-- generated on 2026-03-16T23:18:27.234642+09:00 by Eclipse SUMO duarouter 1.26.0
<duarouterConfiguration xmlns:xsi="http://www.w3.org/2001/XMLSchema-instance" xsi:noNamespaceSchemaLocation="http://sumo.dlr.de/xsd/duarouterConfiguration.xsd">

    <input>
        <net-file value="F:\Newgeneration\FlowMindAI\sumo\danang\danang.net.xml"/>
        <additional-files value="F:\Newgeneration\FlowMindAI\sumo\danang\danang.vtypes.xml"/>
        <route-files value="F:\Newgeneration\FlowMindAI\sumo\danang\danang.trips.xml"/>
    </input>

    <output>
        <output-file value="F:\Newgeneration\FlowMindAI\sumo\danang\danang.rou.xml"/>
    </output>

    <processing>
        <repair value="true"/>
    </processing>

    <report>
        <no-warnings value="true"/>
        <ignore-errors value="true"/>
    </report>

</duarouterConfiguration>
-->

<routes xmlns:xsi="http://www.w3.org/2001/XMLSchema-instance" xsi:noNamespaceSchemaLocation="http://sumo.dlr.de/xsd/routes_file.xsd">
    <vType id="motorbike" length="2.20" maxSpeed="11.11" speedFactor="normc(1.00,0.15,0.20,2.00)" vClass="motorcycle" guiShape="motorcycle" width="0.80" color="230,179,51" accel="3.0" decel="4.5" sigma="0.7"/>
    <vehicle id="ma_0" type="motorbike" depart="0.00">
        <route edges="693885804#0 35950897#0 35950897#6 -118575968#5 -118575968#1 765351891#0 765351891#2 1279915898#2 1279915898#6 1279915898#9 302751295#1 302751295#2 302751295#3 302751295#4 302751295#5 302751295#7 302751295#8 302751295#9 302751295#10 302751295#11 302751295#12 302751295#13 302751295#15 302751295#17 302751295#19 302751295#21 302751295#22 697200467#10 697200467#11 1280089201#2 1280219265 1280219261 1282340737 1282340736 160628085#0 624455965#0 -295408470#2 -295408470#1 321069057 -641487801 -321069035#2 321069049#0 321069061 321069038#0 -676438752#1 -321069049#2 -321069049#0"/>
    </vehicle>
    <vType id="motorbike2" length="2.00" maxSpeed="12.50" speedFactor="normc(1.10,0.20,0.20,2.00)" vClass="motorcycle" guiShape="motorcycle" width="0.70" color="51,153,230" accel="3.5" decel="5.0" sigma="0.8"/>
    <vehicle id="mx_0" type="motorbike2" depart="0.00">
        <route edges="408161670#20 -642360965#3 -642360965#2 -642360965#0 -35950868#20 -35950868#19 -35950868#18 118570159#0 118570159#4 118570159#6 118570159#7 118570159#8 118570159#10 118570159#11 118570159#12 118570159#14 118570159#15 118570159#16 372220804#32 372220804#33 372220804#34 -695544823 39368999#14 39368999#15 39368999#17 694715299#1 694715298 1280219265 1280219261 1282340737 694598419#0 694598419#1-AddedOnRampEdge"/>
    </vehicle>
    <vType id="car" length="4.50" maxSpeed="13.89" speedFactor="normc(1.00,0.10,0.20,2.00)" vClass="passenger" guiShape="passenger" width="1.80" color="51,153,230" accel="2.5" decel="4.0" sigma="0.5"/>
    <vehicle id="ca_0" type="car" depart="0.00">
        <route edges="-372220804#4 -295449622#2 -295449622#1 -676712674 295449629#0 295449629#1 295449629#2 -39354228#3 -695446623#1 695429325#1 39368999#1 39368999#2 39368999#3 39368999#4 39368999#6 39368999#9 39368999#10 39368999#11 39368999#13 39368999#14 39368999#15 39368999#17 694715299#1 694715298 1280219265 1280219261 1282340737 694598419#0 694598419#1-AddedOnRampEdge"/>
    </vehicle>
    <vType id="car_suv" length="4.80" maxSpeed="13.89" speedFactor="normc(1.00,0.10,0.20,2.00)" vClass="passenger" guiShape="passenger/sedan" width="2.00" color="204,51,51" accel="2.2" decel="3.8" sigma="0.5"/>
    <vehicle id="sv_0" type="car_suv" depart="0.00">
        <route edges="295408452#16-AddedOffRampEdge 1034028675#0 35950882#1 35950882#3 -561426521 -118672633#2 -118672633#1 -118672633#0 -676467950 -561474249#1 302751295#12 302751295#13 302751295#15 35950864#0 35950864#3 35950864#6 35950864#8 35950864#14 35950864#19 35950864#21 35950864#22 35950864#23 35950864#24 35950864#25 35950864#28 35950864#30 -642086911 295408466#1 1280219259#1 295408468#0 295408468#4 295408465#1 295408465#2-AddedOnRampEdge"/>
    </vehicle>
    <vType id="taxi" length="4.50" maxSpeed="13.89" speedFactor="normc(0.90,0.10,0.20,2.00)" vClass="passenger" guiShape="passenger/sedan" width="1.80" color="255,255,51" accel="2.5" decel="4.0" sigma="0.4"/>
    <vehicle id="tx_0" type="taxi" depart="0.00">
        <route edges="695502614 695502613 695502611#0 695502611#1 695504114#0 695504114#1 695504114#4 295449627#0 295449627#4 295449627#5 698046188#1 1279915897 695510008#0 695510008#2 35950868#0 35950868#1 35950868#4 35950868#5 35950868#6 35950868#7 35950868#8 35950868#9 35950868#10 35950868#11 35950868#14 35950868#15 35950868#16 35950868#18 35950868#19 35950868#20 35950868#21 -562701506#1 -562701506#0 408161670#24 -118573597 118555049#0 118555049#1 118555049#2 118555049#5 118555049#8 118555049#10 118555049#15 560329307"/>
    </vehicle>
    <vType id="bus" length="12.00" maxSpeed="11.11" speedFactor="normc(0.80,0.05,0.20,2.00)" vClass="bus" guiShape="bus" width="2.50" color="51,204,77" accel="1.5" decel="3.0" sigma="0.4"/>
    <vehicle id="bs_0" type="bus" depart="0.00">
        <route edges="118555049#8 118555049#10 118555049#15 118555049#17 910359052#3 910359052#5 910359052#7 910359052#8 910359052#9 697200467#0 697200467#1 697200467#4 697200467#8 697200467#9 697200467#10 697200467#11 1280089201#2 1280219265 1280219261 1282340737 1282340736 160628085#0 160628085#1 160628085#2 295408461#0"/>
    </vehicle>
    <vType id="truck" length="10.00" maxSpeed="8.33" speedFactor="normc(0.70,0.10,0.20,2.00)" vClass="truck" guiShape="truck" width="2.50" color="179,77,77" accel="1.2" decel="3.0" sigma="0.4"/>
    <vehicle id="tk_0" type="truck" depart="0.00">
        <route edges="-35950883#9 -35950883#8 -35950883#6 -35950883#3 -35950883#0 1282715056 1282340752 1279915897 695510008#0 695510008#2 35950868#0 35950868#1 35950868#4 35950868#5 35950868#6 35950868#7 35950868#8 35950868#9 35950868#10 35950868#11 35950868#14 35950868#15 35950868#16 35950868#18 35950868#19 35950868#20 35950868#21 35950868#23 35950868#24 35950868#26 35950868#27 35950868#29 35950868#30 35950868#32 35950868#34 35950868#37 302751295#1 302751295#2 302751295#3 302751295#4 302751295#5 302751295#7 302751295#8 302751295#9 302751295#10 302751295#11 302751295#12 302751295#13 302751295#15 302751295#17 302751295#19 302751295#21 302751295#22 302751295#23 302751295#25 302751295#26 302751295#28 563780766 295408459#5"/>
    </vehicle>
    <vType id="delivery" length="6.00" maxSpeed="11.11" speedFactor="normc(0.85,0.10,0.20,2.00)" vClass="truck" guiShape="truck" width="2.20" color="153,102,51" accel="1.8" decel="3.5" sigma="0.5"/>
    <vehicle id="dv_0" type="delivery" depart="0.00">
        <route edges="695025560#0 693885803#1 693885803#17 693885803#26 693885803#27 765351891#0 765351891#2 1279915898#2 1279915898#6 1279915898#9 302751295#1 302751295#2 302751295#3 302751295#4 302751295#5 302751295#7 302751295#8 302751295#9 302751295#10 302751295#11 302751295#12 302751295#13 302751295#15 302751295#17 302751295#19 302751295#21 302751295#22 697200467#10 697200467#11"/>
    </vehicle>
    <vehicle id="ma_1" type="motorbike" depart="0.80">
        <route edges="695510007#0 695510007#1 -1447078728#1 -1447078728#0 295386152#7 372463312 676494208 -676509072#1 -676509076#1 -676509076#0 1279915921"/>
    </vehicle>
    <vehicle id="mx_1" type="motorbike2" depart="1.57">
        <route edges="295408459#1 295408459#3 295408459#4 295408459#5 295408459#7 695295268 1280089201#0 1280089201#1 1280089201#2 -694715298 -694715297 35950864#19 118674615#0 295408462#8 295408462#10"/>
    </vehicle>
    <vehicle id="ma_2" type="motorbike" depart="1.60">
        <route edges="1280219258#0 295408463#0 295408463#1 1280219260#0 1280219260#1 295408462#0 295408462#1 295408462#8 295408462#10 295408462#12 1282340737 1282340736 160628085#0 160628085#1 160628085#2 295408461#0 295408461#1 295408461#4 295408461#5"/>
    </vehicle>
    <vehicle id="ma_3" type="motorbike" depart="2.40">
        <route edges="-676453139#0 -118672606#7 -118672606#6 -118672606#5 -118672606#2 -118672606#1 -118672606#0 -35950868#19 -35950868#18 -35950868#16 -35950868#15 -35950868#14 -35950868#12 -35950868#10 -35950868#9 -35950868#8 -35950868#7 -35950868#6 -35950868#5 -35950868#4 -35950868#2 -35950868#0 -695510008#3"/>
    </vehicle>
    <vehicle id="ca_1" type="car" depart="3.00">
        <route edges="697200467#4 -302751295#20 -302751295#18 -302751295#16 -302751295#14 -302751295#12 -302751295#11 -302751295#10 -302751295#9 -302751295#8 -302751295#7 -302751295#5 -302751295#4 -302751295#3 -302751295#2 -302751295#1 -35950868#37 -35950868#35 -35950868#33 -35950868#30 -35950868#29 -35950868#28 -35950868#26 -35950868#25 -35950868#23 -35950868#21 -35950868#20 -35950868#19 -35950868#18 -35950868#16 -35950868#15 118573603#0 118573603#1 118573603#2 408161670#18"/>
    </vehicle>
    <vehicle id="mx_2" type="motorbike2" depart="3.14">
        <route edges="295449627#5 698046188#1 1279915897 695510008#0 695510008#2 35950868#0 35950868#1 35950868#4 35950868#5 35950868#6 35950868#7 35950868#8 35950868#9 35950868#10 35950868#11 35950868#14 35950868#15 35950868#16 35950868#18 35950868#19 35950868#20 35950868#21 35950868#23 35950868#24 35950868#26 35950868#27 35950868#29 35950868#30 35950868#32 35950868#34 35950868#37 302751295#1 302751295#2 302751295#3 302751295#4 302751295#5 302751295#7 302751295#8 302751295#9 302751295#10 302751295#11 302751295#12 302751295#13 302751295#15 302751295#17 302751295#19 302751295#21 302751295#22 302751295#23 302751295#25 302751295#26 302751295#28 563780766 295408459#5 295408459#7 295408477"/>
    </vehicle>
    <vehicle id="ma_4" type="motorbike" depart="3.20">
        <route edges="695040105#3 118573606#0 -828678908 -695090346#3 -695090346#1 828678909#0"/>
    </vehicle>
    <vehicle id="ma_5" type="motorbike" depart="4.00">
        <route edges="35950925#4 118575972#0 -372463312 696756023 695040552#0 695040552#1 1279915919 1279915896#0 1279915896#1 1282715056 696168834#0 696168834#1 696169688 695446625#1 695446625#3 695490087#1 695490086#1 295449625#0 295449625#1 695496042#0 1280219258#0 295408463#0 404709476 673151198#1 300949143 300949144#1 118673944#6 673151196 -118673921#4 118673928"/>
    </vehicle>
    <vehicle id="mx_3" type="motorbike2" depart="4.71">
        <route edges="694775628#2 302751284#0 302751284#3 673151142#3 673151142#4 695025562#0 693885802#0 693885802#2 695030266 695040105#0 695040105#3 695040105#5 695040552#0 695040552#1 1279915919 1279915896#0 1279915896#1 1282715056 696168834#0"/>
    </vehicle>
    <vehicle id="ma_6" type="motorbike" depart="4.80">
        <route edges="118673907 -1387292390#3 118566872#7 118566872#8 695446625#3 695490087#1 695490086#1 295449625#0 295449625#1 695496042#0"/>
    </vehicle>
    <vehicle id="ma_7" type="motorbike" depart="5.60">
        <route edges="35950868#26 35950868#27 35950868#29 35950868#30 35950868#32 35950868#34 35950868#37 -1279915898#9 -1279915898#8 -1279915898#3 118555049#0 118555049#1 118575969#0 673151144#0 673151144#1 964171425#4 964171425#5 964171425#6 1282340716 1418093030"/>
    </vehicle>
    <vehicle id="ca_2" type="car" depart="6.00">
        <route edges="695025562#0 693885802#0 693885802#2 295386152#0 -118575975#6 -118575975#5 -118575975#4 -118575975#3 -118575975#2 -118575975#1 -118575975#0 118575972#5 689583171#11 689583171#12 343417844#0 693416739#0 693416739#3 408161672#0 408161672#1"/>
    </vehicle>
    <vehicle id="mx_4" type="motorbike2" depart="6.28">
        <route edges="302751286#2 -302739242#0 -118575969#0 -118555049#1 -118555049#0 1279915898#2 1279915898#6 1279915898#9 302751295#1 302751295#2 302751295#3 302751295#4 302751295#5 302751295#7 302751295#8 302751295#9 302751295#10 302751295#11 302751295#12 302751295#13 302751295#15 302751295#17 302751295#19 302751295#21 302751295#22 302751295#23 295408452#10 295408452#11 295408452#16 295408452#16-AddedOffRampEdge 1165643358"/>
    </vehicle>
    <vehicle id="ma_8" type="motorbike" depart="6.40">
        <route edges="696715602 -696715602 -689583176#4 -689583176#3 -1124338482 689583178#3 689583178#5 676509076#0 676509076#1 698936203#3 698936203#4 698936203#5 698936203#7 698936203#8 695040105#0 695040105#3 695040105#5 695040552#0 695040552#1 1279915919 1279915896#0 1279915896#1 1282715056 696168834#0 696168834#1 696169688 695446625#1 695446625#3 695490087#1 695490086#1"/>
    </vehicle>
    <vehicle id="ma_9" type="motorbike" depart="7.20">
        <route edges="408161670#20 -642360965#3 -642360965#2 -642360965#0 -35950868#20 -35950868#19 -35950868#18 -35950868#16 -35950868#15 -35950868#14 -35950868#12 -35950868#10 -35950868#9 372467078#0 372467078#1 372467078#2 372467078#3 408161670#13 372464931#1 828678875"/>
    </vehicle>
    <vehicle id="sv_1" type="car_suv" depart="7.20">
        <route edges="694601892 695295267#0 695295267#2 -118674615#1 -35950864#20 694715299#1 694715298 1280219265 1280219261 1282340737 1282340736 160628085#0 160628085#1 160628085#2 1280089222 1280089201#0 295408452#0 295408452#1 295408452#5 295408452#6"/>
    </vehicle>
    <vehicle id="tx_1" type="taxi" depart="7.20">
        <route edges="-673151198#1 -673151198#0 1280219260#1 118570175 295408467 642086911 -35950864#30 -35950864#29 -35950864#27 -35950864#24 -35950864#23 -35950864#22 -35950864#21 -35950864#20 -35950864#16 -35950864#13 -35950864#7 -35950864#5 -35950864#2 -302751295#16 -302751295#14 -302751295#12 -302751295#11 -302751295#10 -302751295#9 -302751295#8 -302751295#7 -302751295#5 -302751295#4 -302751295#3 -302751295#2 -302751295#1 -35950868#37 -35950868#35"/>
    </vehicle>
    <vehicle id="mx_5" type="motorbike2" depart="7.85">
        <route edges="828678817#2 -372220804#16 295449627#4 295449627#5 698046188#1 1279915897 1282340739 695510007#0 695510007#1 295128790#0 295128790#4 693885804#0"/>
    </vehicle>
    <vehicle id="ma_10" type="motorbike" depart="8.00">
        <route edges="372220804#21 372220804#22 372220804#23 372220804#29 372220804#30 372220804#32 372220804#33 372220804#34 -695544823 39368999#14 39368999#15 39368999#17 694715299#1 694715298 1280219265 1280219261 1282340737 1282340736 160628085#0 160628085#1 160628085#2 1280089222 1280089201#0 295408452#0 295408452#1 295408452#5 295408452#6 295408452#7 295408452#8 295408452#9 295408452#10 295408452#11"/>
    </vehicle>
    <vehicle id="ma_11" type="motorbike" depart="8.80">
        <route edges="694830396 694830397 694830395#0 695025562#0 693885802#0 693885802#2 695030266 695040105#0 695040105#3 695040105#5 695040552#0 695040552#1 1279915919 1279915896#0 1279915896#1 1282715056 1282340752 1279915897 1282340739 695510007#0 695510007#1"/>
    </vehicle>
    <vehicle id="ca_3" type="car" depart="9.00">
        <route edges="828678862#1 828678861 828678860#1 828678860#2 828678860#4 118573603#1 118573603#2 408161670#18 408161670#20 408161670#22 828678870 828678869#1"/>
    </vehicle>
    <vehicle id="bs_1" type="bus" depart="9.00">
        <route edges="828724769 828724768#0 828724768#1 828724768#2 828724775 828724762 -118672607#5 -118672607#4 -118672607#3 -118672607#2 -118672607#1 -118672607#0 -35950868#25 -35950868#23 -35950868#21 -35950868#20 -35950868#19 -35950868#18 -35950868#16 -35950868#15 -35950868#14 -35950868#12 -35950868#10 -35950868#9 -35950868#8 -35950868#7 -35950868#6 -35950868#5 -35950868#4 -35950868#2 -35950868#0 -695510008#3 -695510008#0 1282340739 695510007#0 695510007#1 295128790#0 295128790#4"/>
    </vehicle>
    <vehicle id="mx_6" type="motorbike2" depart="9.42">
        <route edges="964171425#4 -676458407 -118672444#3 -118672444#1 -673151144#0 302739242#0 302739242#1 694775628#0 694775628#2 302751284#0 302751284#3 673151142#3 673151142#4 693416427 693416739#0 371908669#0 689583171#10 689583171#11 689583171#12"/>
    </vehicle>
    <vehicle id="ma_12" type="motorbike" depart="9.60">
        <route edges="1034028675#2 -118555049#17 560329307 -560329293#0 372467087#0 894924691 -35950882#7 -561426521 -118672633#2 -118672633#1 -118672633#0 -676467950 -561474249#1 302751295#12 302751295#13 302751295#15 35950864#0 35950864#3 35950864#6 35950864#8 35950864#14 35950864#19 35950864#21 35950864#22 35950864#23 35950864#24 35950864#25 35950864#28 35950864#30 -642086911 295408466#1 1280219259#1 1280219266 1280219260#0 1280219260#1 118570175"/>
    </vehicle>
    <vehicle id="ma_13" type="motorbike" depart="10.40">
        <route edges="-39368999#3 118570183#4 1387292391 -118566872#1 -118566872#0 39368999#4 39368999#6 39368999#9 39368999#10 39368999#11 39368999#13 39368999#14 39368999#15"/>
    </vehicle>
    <vehicle id="mx_7" type="motorbike2" depart="10.99">
        <route edges="295449627#4 295449627#5 698046188#1 1279915897 1282340739 118567494 1279915919 35950925#0 35950925#1 35950925#2 35950925#3 35950925#4 35950925#6 35950925#7"/>
    </vehicle>
    <vehicle id="ma_14" type="motorbike" depart="11.20">
        <route edges="689583171#5 689583171#6 689583171#7 689583171#10 689583171#11 689583171#12 689583171#15 695025560#0 693885803#1 693885803#17 -372464931#4 -372464931#3 -372464931#2 -372464931#1 -118573603#2 -118573603#1 -118573603#0 35950868#15 35950868#16 118570159#0 118570159#4 118570159#6 118570159#7 118570159#8 118570159#10 118570159#11 118570159#12 118570159#14 118570159#15 118570159#16 372220804#32 372220804#33 372220804#34 -695544823 39368999#14 39368999#15 39368999#17 694715299#1 694715298 1280219265 1280219261 1282340737 1282340736 160628085#0 160628085#1 160628085#2 295408461#0 295408461#1 295408461#4 295408461#5 295408461#7 295408461#9 295408461#10"/>
    </vehicle>
    <vehicle id="ma_15" type="motorbike" depart="12.00">
        <route edges="118688839#5 118688839#6 1279915896#1 1282715056 696168834#0 696168834#1 696169688 695446625#1 -118566872#9 -118570149#5 -118570149#4 -118570149#3 -39368999#1"/>
    </vehicle>
    <vehicle id="ca_4" type="car" depart="12.00">
        <route edges="695496039#2 695496039#3 695502614 118673929#0 118673929#1 118673929#3 118673929#5 118673929#7 295408466#1 1280219259#1 1280219266 1280219260#0 1280219260#1 295408462#0 295408462#1 295408462#8 295408462#10 295408462#12 1282340737 1282340736 160628085#0 160628085#1 160628085#2 295408461#0 295408461#1 295408461#4 295408461#5 295408461#7 295408461#9"/>
    </vehicle>
    <vehicle id="tk_1" type="truck" depart="12.00">
        <route edges="696168834#0 696168834#1 828678816#0 828678816#1 828678739 828678810#1 828678810#3 828678810#4 -118570168#2 118673913#0 118673913#4 828678800"/>
    </vehicle>
    <vehicle id="dv_1" type="delivery" depart="12.00">
        <route edges="295408461#4 -321069035#6 -676439266 -321069057 295408470#1 295408470#2 673632547 160628085#2 1280089222 1280089201#0 1280089201#1 1280089201#2 1280219265 694601892 695295267#0 695295267#2 695295265#0 295408460#2 828724790#0 828724790#1 642086911 -35950864#30 118575974#0 118575974#1 -35950959#11 -35950959#8 -35950959#6 -35950959#4 -35950959#3 -35950959#2 -35950959#1 -643264676 295449625#0 295449625#1"/>
    </vehicle>
    <vehicle id="mx_8" type="motorbike2" depart="12.56">
        <route edges="1034028677#0 1034028677#1 1282340735 694774375#0 -302739242#2 -302739242#0 -118575969#0 -118555049#1 -118555049#0 1279915898#2 1279915898#6 1279915898#9 302751295#1 302751295#2 302751295#3 302751295#4 302751295#5 302751295#7 302751295#8 302751295#9 302751295#10 302751295#11 302751295#12 302751295#13 302751295#15 302751295#17 302751295#19 302751295#21 302751295#22 697200467#10 697200467#11 1280089201#2 1280219265 1280219261 1282340737 1282340736 160628085#0 160628085#1 160628085#2 1280089222"/>
    </vehicle>
    <vehicle id="ma_16" type="motorbike" depart="12.80">
        <route edges="39368999#13 39368999#14 39368999#15 118673937#0 118673937#3 118673937#4 -562701507#1 -372466116#1 -372466116#0 1160396738 -372466117#3 -372466117#2 -372466117#1 -372466117#0 -302751295#9 -302751295#8 -562634341 118672633#1 118672633#2 561426521 35950882#7 -894924691 -372467087#1 -372467084#2 372467085#0 828724687 -828724687"/>
    </vehicle>
    <vehicle id="ma_17" type="motorbike" depart="13.60">
        <route edges="694598419#0 694598419#1-AddedOnRampEdge 694598419#1 -641082247 694594970#0 694600787 160628085#0 160628085#1 160628085#2 1280089222 1280089201#0 1280089201#1 1280089201#2 1280219265 694601892 695295267#0 695295267#2 695295265#0 295408460#2 295408460#3 1280219259#0 1280219259#1 1280219266 1280219260#0 673151198#0 673151198#1 300949143 300949144#1 118673944#6"/>
    </vehicle>
    <vehicle id="mx_9" type="motorbike2" depart="14.13">
        <route edges="295408452#16-AddedOffRampEdge 1034028675#0 35950882#1 -676465939#3 -676465939#2 -676465939#0 -561667993 910359052#9 697200467#0 697200467#1 697200467#4 697200467#8 697200467#9 697200467#10 697200467#11 1280089201#2 1280219265 1280219261 1282340737 1282340736 160628085#0 160628085#1 160628085#2 1280089222 1280089201#0"/>
    </vehicle>
    <vehicle id="ma_18" type="motorbike" depart="14.40">
        <route edges="689583171#3 689583171#4 689583171#5 689583171#6 689583171#7 689583171#10 689583171#11 689583171#12 689583171#15 695025560#0 1096471623#0 35950897#0 35950897#6 35950897#10 35950897#13 35950897#15 964171425#0 964171425#4 964171425#5 964171425#6 1282340716 1418093030"/>
    </vehicle>
    <vehicle id="sv_2" type="car_suv" depart="14.40">
        <route edges="-372464931#4 -372464931#3 -372464931#2 -372464931#1 408161670#18"/>
    </vehicle>
    <vehicle id="tx_2" type="taxi" depart="14.40">
        <route edges="697200467#10 697200467#11 1280089201#2 1280219265 1280219261 1282340737 1282340736 160628085#0 160628085#1 160628085#2 295408461#0 295408461#1"/>
    </vehicle>
    <vehicle id="ca_5" type="car" depart="15.00">
        <route edges="295408460#3 295408467 642086911 -35950864#30 -35950864#29 -35950864#27 -35950864#24 -35950864#23 -35950864#22 -35950864#21 -35950864#20 -35950864#16 -35950864#13 -35950864#7 -35950864#5 -35950864#2 -302751295#16 -302751295#14 -302751295#12 561474249#0 676467950 118672633#0 118672633#1 118672633#2 561426521 -35950882#5 -35950882#2 1034028675#2 1034028675#6 1034027336#2 1034028676#0 1034028676#1 1034028676#2 302751282-AddedOnRampEdge 302751282"/>
    </vehicle>
    <vehicle id="ma_19" type="motorbike" depart="15.20">
        <route edges="-698993299 1279915898#6 1279915898#9 -35950868#37 372464936 562701500 372466114#1 372466114#3 1279259377#0 1279259377#1 372466118 561913438#1 561913438#2 561913438#4 561913438#5 -118673937#3 -118673937#2 -39368999#15 -39368999#14 -39368999#13 -39368999#12 -39368999#10 -39368999#9 -39368999#8 -39368999#5 -39368999#3 -39368999#2 -39368999#1 -39368999#0 695446623#1 39354228#1"/>
    </vehicle>
    <vehicle id="mx_10" type="motorbike2" depart="15.70">
        <route edges="295408452#8 295408452#9 -302751295#23 697200467#10 697200467#11 1280089201#2 1280219265 694601892 695295267#0 695295267#2 695295265#0 295408460#2 828724790#0 828724790#1 642086911 -35950864#30 118575974#0 118575974#1 -35950959#11 -35950959#8 -35950959#6 -35950959#4 -35950959#3 -35950959#2 -35950959#1 -643264676 -35950850#24 -35950850#23 -35950850#20 -696991611#2 -118567892"/>
    </vehicle>
    <vehicle id="ma_20" type="motorbike" depart="16.00">
        <route edges="695025560#0 693885803#1 693885803#17 693885803#26 693885803#27 765351891#0 765351891#2 118555049#0 118555049#1 118555049#2 118555049#5 118555049#8 118555049#10 118555049#15 118555049#17 910359052#3 910359052#5"/>
    </vehicle>
    <vehicle id="ma_21" type="motorbike" depart="16.80">
        <route edges="1160397532 -1160397532 562709015#0 -828724700#3 -828724700#2 -828724700#1 -828724700#0 561913438#4 561913438#5 -118673937#3 -118673937#2 39368999#17 694715299#1 694715298 1280219265 1280219261 1282340737 1282340736 160628085#0 160628085#1 160628085#2"/>
    </vehicle>
    <vehicle id="mx_11" type="motorbike2" depart="17.27">
        <route edges="-118555049#17 560329307 -560329293#0 372467087#0 894924691 -35950882#7 -561426521 -118672633#2 -118672633#1 -118672633#0 -676467950 -561474249#1 302751295#12 302751295#13 302751295#15 35950864#0 35950864#3 35950864#6 35950864#8 35950864#14 35950864#19 35950864#21 35950864#22 35950864#23 35950864#24 35950864#25 35950864#28 35950864#30 -642086911 295408466#1 1280219259#1 295408468#0 344692547#0 344692547#1 344692547#3"/>
    </vehicle>
    <vehicle id="ma_22" type="motorbike" depart="17.60">
        <route edges="-39368999#9 -39368999#8 -39368999#5 -39368999#3 -39368999#2 -39368999#1 -39368999#0 695490087#1 695490086#1 295449625#0 295449625#1"/>
    </vehicle>
    <vehicle id="ca_6" type="car" depart="18.00">
        <route edges="295408468#0 295408468#4 695496039#2 695496039#3 695502614 695502613 695502611#0 695502611#1 695504114#0 695504114#1 695504114#4 295449627#0 295449627#4 295449627#5 698046188#1 1279915897 695510008#0 695510008#2 35950868#0 35950868#1 35950868#4 35950868#5 35950868#6 35950868#7 35950868#8 35950868#9"/>
    </vehicle>
    <vehicle id="bs_2" type="bus" depart="18.00">
        <route edges="696168834#1 828678816#0 828678817#4 344658497#0 118570147#0 118570147#1 -695510008#3 -695510008#0 1282340739 118567494 1279915919"/>
    </vehicle>
    <vehicle id="ma_23" type="motorbike" depart="18.40">
        <route edges="-561913438#1 -372466118 -1279259377#1 -1279259377#0 -372466114#3 -372466114#2 -372466114#0 -372464936 -35950868#35 -35950868#33 -35950868#30 -35950868#29 -35950868#28 -35950868#26 -35950868#25 -35950868#23 -35950868#21 -35950868#20 -35950868#19 -35950868#18 -35950868#16 -35950868#15 -35950868#14 -35950868#12 -35950868#10 -35950868#9 -35950868#8 -35950868#7 -35950868#6 -35950868#5 -35950868#4 -35950868#2 -35950868#0 -695510008#3 -695510008#0 1282340739 695510007#0 695510007#1 295128790#0 295128790#4 693885804#0"/>
    </vehicle>
    <vehicle id="mx_12" type="motorbike2" depart="18.84">
        <route edges="372467087#2 -561426521 -118672633#2 -118672633#1 -118672633#0 -676467950 -561474249#1 302751295#12 302751295#13 302751295#15 302751295#17 302751295#19 302751295#21 302751295#22 302751295#23 295408452#10 295408452#11 295408452#16 295408452#16-AddedOffRampEdge"/>
    </vehicle>
    <vehicle id="ma_24" type="motorbike" depart="19.20">
        <route edges="-295408470#2 895482900 -895482900 295408470#2 673632547 160628085#2 1280089222 1280089201#0 1280089201#1 1280089201#2 -694715298 -694715297 -39368999#20 -39368999#15 -39368999#14 695544823 -372220804#34 -372220804#33 -372220804#32 -372220804#30 -372220804#29 -562701502#4 -562701502#3 -562701502#2 -562701502#1 -118570181#9 -118570181#8 -118570181#7 -118570181#6 -118570181#5 -118570181#4 828678798#1 -828678798#1"/>
    </vehicle>
    <vehicle id="ma_25" type="motorbike" depart="20.00">
        <route edges="35950864#24 35950864#25 35950864#28 35950864#30 -642086911 295408466#1 1280219259#1 295408468#0 295408468#4 295408465#1 295408465#2-AddedOnRampEdge"/>
    </vehicle>
    <vehicle id="mx_13" type="motorbike2" depart="20.41">
        <route edges="372220804#33 372220804#34 -695544823 39368999#14 39368999#15 39368999#17 694715299#1 694715298 1280219265 1280219261 1282340737 1282340736 160628085#0 160628085#1 160628085#2 1280089222 1280089201#0 295408452#0 295408452#1 295408452#5 295408452#6 295408452#7 295408452#8 295408452#9 295408452#10 295408452#11 295408452#16 295408452#16-AddedOffRampEdge"/>
    </vehicle>
    <vehicle id="ma_26" type="motorbike" depart="20.80">
        <route edges="695040552#0 695040552#1 1279915919 1279915896#0 1279915896#1 1282715056 696168834#0 696168834#1"/>
    </vehicle>
    <vehicle id="ca_7" type="car" depart="21.00">
        <route edges="694830397 694830395#0 695025562#0 693885803#1 693885803#17 693885803#26 693885803#27 765351891#0 765351891#2 1279915898#2 1279915898#6 1279915898#9 302751295#1 302751295#2 302751295#3 302751295#4 302751295#5 302751295#7 302751295#8 302751295#9 302751295#10 302751295#11 302751295#12 302751295#13 302751295#15 302751295#17 302751295#19 302751295#21 302751295#22 697200467#10"/>
    </vehicle>
    <vehicle id="ma_27" type="motorbike" depart="21.60">
        <route edges="693416739#3 35950887 689583171#7 689583171#10 689583171#11 689583171#12 689583171#15 695025560#0 693885804#0"/>
    </vehicle>
    <vehicle id="sv_3" type="car_suv" depart="21.60">
        <route edges="693416739#3 35950887 689583171#7 689583171#10 689583171#11 689583171#12 689583171#15 695025560#0 1096471623#0 35950897#0 676458410#0 -1282340713#1 -1282340713#0 -641397119#1 641397118 1391330070#12 1391330071"/>
    </vehicle>
    <vehicle id="tx_3" type="taxi" depart="21.60">
        <route edges="-1279915898#9 -1279915898#8 -1279915898#3 118555049#0 118555049#1 118575969#0 673151144#0 673151144#1 964171425#4 964171425#5 964171425#6 1034028678 1034027336#0 1034027336#1"/>
    </vehicle>
    <vehicle id="mx_14" type="motorbike2" depart="21.98">
        <route edges="689583171#11 689583171#12 689583171#15 695025560#0 693885803#1 693885803#17 693885803#26 693885803#27 765351891#0 765351891#2 118555049#0 118555049#1 118555049#2 118555049#5 118555049#8 118555049#10 118555049#15 118555049#17 910359052#3"/>
    </vehicle>
    <vehicle id="ma_28" type="motorbike" depart="22.40">
        <route edges="39368999#4 39368999#6 39368999#9 39368999#10 39368999#11 39368999#13 39368999#14 39368999#15 39368999#17 694715299#1 694715298 1280219265 1280219261 1282340737 694598419#0 694598419#1-AddedOnRampEdge 694598419#1 -641082247 694594970#0 694600787"/>
    </vehicle>
    <vehicle id="ma_29" type="motorbike" depart="23.20">
        <route edges="39368999#6 39368999#9 39368999#10 39368999#11 39368999#13 695544823 -372220804#34 -372220804#33 -372220804#32 -118570159#16 -118570159#15 -118570159#14 -118570159#13 -118570159#11 -118570159#10 -118570159#8 -118570159#7 -118570159#6 -118570159#5 -118570159#2 35950868#18 35950868#19 35950868#20 35950868#21 -562701506#1 -562701506#0 408161670#24 -118573597 118555049#0 118555049#1 118575969#0 302739242#0 302739242#1 676461674 -641397119#1 641397118 1391330070#12 1391330071"/>
    </vehicle>
    <vehicle id="mx_15" type="motorbike2" depart="23.55">