<?xml version="1.0" encoding="UTF-8"?>

<!-- generated on 2026-03-19 15:47:45.985887 by Eclipse SUMO randomTrips.py v1_26_0+0000-fa7df22d7f1
<configuration>
    <net-file value="D:\WeSaveTime-ASEAN\sumo\danang\danang.net.xml"/>
    <additional-files value="D:\WeSaveTime-ASEAN\sumo\danang\danang.vtypes.xml"/>
    <weights-prefix value="D:\WeSaveTime-ASEAN\sumo\danang\danang.weights"/>
    <output-trip-file value="D:\WeSaveTime-ASEAN\sumo\danang\danang.mx_.trips.xml"/>
    <prefix value="mx_"/>
    <trip-attributes value="type=&quot;motorbike2&quot;"/>
    <fringe-factor value="2"/>
    <random value="True"/>
    <remove-loops value="True"/>
    <end value="900.0"/>
    <period value="0.78"/>
</configuration>
-->

<routes xmlns:xsi="http://www.w3.org/2001/XMLSchema-instance" xsi:noNamespaceSchemaLocation="http://sumo.dlr.de/xsd/routes_file.xsd">
    <trip id="mx_0" depart="0.00" from="624455965#0" to="910359052#7" type="motorbike2"/>
    <trip id="mx_1" depart="0.78" from="295408462#0" to="118567886#0" type="motorbike2"/>
    <trip id="mx_2" depart="1.56" from="-828724731" to="35950925#9" type="motorbike2"/>
    <trip id="mx_3" depart="2.34" from="697200467#0" to="-828678869#1" type="motorbike2"/>
    <trip id="mx_4" depart="3.12" from="695504114#1" to="695054805#1" type="motorbike2"/>
    <trip id="mx_5" depart="3.90" from="1279915921" to="-676712671" type="motorbike2"/>
    <trip id="mx_6" depart="4.68" from="-828724683" to="-35950959#1" type="motorbike2"/>
    <trip id="mx_7" depart="5.46" from="295408464#0-AddedOffRampEdge" to="408161670#27" type="motorbike2"/>
    <trip id="mx_8" depart="6.24" from="-695446623#1" to="779462187#1" type="motorbike2"/>
    <trip id="mx_9" depart="7.02" from="828724755#0" to="295128790#0" type="motorbike2"/>
    <trip id="mx_10" depart="7.80" from="673151142#3" to="295408465#1" type="motorbike2"/>
    <trip id="mx_11" depart="8.58" from="828724697#0" to="828678862#2" type="motorbike2"/>
    <trip id="mx_12" depart="9.36" from="-302751295#25" to="35950897#10" type="motorbike2"/>
    <trip id="mx_13" depart="10.14" from="694830397" to="910359052#0" type="motorbike2"/>
    <trip id="mx_14" depart="10.92" from="295408452#16-AddedOffRampEdge" to="295408452#1" type="motorbike2"/>
    <trip id="mx_15" depart="11.70" from="405113894" to="408161670#0" type="motorbike2"/>
    <trip id="mx_16" depart="12.48" from="1280219260#1" to="295408465#1" type="motorbike2"/>
    <trip id="mx_17" depart="13.26" from="695490087#1" to="643237807#2" type="motorbike2"/>
    <trip id="mx_18" depart="14.04" from="-118673886#0" to="693885802#0" type="motorbike2"/>
    <trip id="mx_19" depart="14.82" from="697200467#10" to="302751295#1" type="motorbike2"/>
    <trip id="mx_20" depart="15.60" from="1280614504#0" to="694774375#0" type="motorbike2"/>
    <trip id="mx_21" depart="16.38" from="295408463#1" to="693885803#17" type="motorbike2"/>
    <trip id="mx_22" depart="17.16" from="964171425#5" to="302751284#3" type="motorbike2"/>
    <trip id="mx_23" depart="17.94" from="408161670#20" to="295128790#4" type="motorbike2"/>
    <trip id="mx_24" depart="18.72" from="-118673929#0" to="-343237264#2" type="motorbike2"/>
    <trip id="mx_25" depart="19.50" from="-1458964293" to="-561667993" type="motorbike2"/>
    <trip id="mx_26" depart="20.28" from="694583900#0-AddedOffRampEdge" to="-765351891#0" type="motorbike2"/>
    <trip id="mx_27" depart="21.06" from="695502613" to="689583176#5" type="motorbike2"/>
    <trip id="mx_28" depart="21.84" from="964171425#0" to="321069061" type="motorbike2"/>
    <trip id="mx_29" depart="22.62" from="295128790#0" to="118567494" type="motorbike2"/>
    <trip id="mx_30" depart="23.40" from="-118673921#3" to="35950925#0" type="motorbike2"/>
    <trip id="mx_31" depart="24.18" from="-39368999#0" to="-828724735" type="motorbike2"/>
    <trip id="mx_32" depart="24.96" from="910359052#7" to="295408461#4" type="motorbike2"/>
    <trip id="mx_33" depart="25.74" from="39368999#17" to="-373009311#1" type="motorbike2"/>
    <trip id="mx_34" depart="26.52" from="39368999#4" to="673151142#4" type="motorbike2"/>
    <trip id="mx_35" depart="27.30" from="295408464#0-AddedOffRampEdge" to="302751295#26" type="motorbike2"/>
    <trip id="mx_36" depart="28.08" from="-295386152#7" to="118672606#7" type="motorbike2"/>
    <trip id="mx_37" depart="28.86" from="295408466#1" to="-35950882#9" type="motorbike2"/>
    <trip id="mx_38" depart="29.64" from="910359052#0" to="295408461#5" type="motorbike2"/>
    <trip id="mx_39" depart="30.42" from="118570181#6" to="35950868#34" type="motorbike2"/>
    <trip id="mx_40" depart="31.20" from="-118672607#3" to="295408468#0" type="motorbike2"/>
    <trip id="mx_41" depart="31.98" from="-302751295#5" to="-704621733#2" type="motorbike2"/>
    <trip id="mx_42" depart="32.76" from="-295386152#9" to="694774375#0" type="motorbike2"/>
    <trip id="mx_43" depart="33.54" from="1282340737" to="828678846" type="motorbike2"/>
    <trip id="mx_44" depart="34.32" from="-118566872#3" to="408161670#20" type="motorbike2"/>
    <trip id="mx_45" depart="35.10" from="295408464#0-AddedOffRampEdge" to="828724786" type="motorbike2"/>
    <trip id="mx_46" depart="35.88" from="118672619#3" to="408161672#1" type="motorbike2"/>
    <trip id="mx_47" depart="36.66" from="-295386152#7" to="673151142#4" type="motorbike2"/>
    <trip id="mx_48" depart="37.44" from="295128790#4" to="1280614485" type="motorbike2"/>
    <trip id="mx_49" depart="38.22" from="375341805" to="828678791" type="motorbike2"/>
    <trip id="mx_50" depart="39.00" from="1280614485" to="302751282-AddedOnRampEdge" type="motorbike2"/>
    <trip id="mx_51" depart="39.78" from="1282340717#1" to="-302751295#16" type="motorbike2"/>
    <trip id="mx_52" depart="40.56" from="695025560#0" to="1280614485" type="motorbike2"/>
    <trip id="mx_53" depart="41.34" from="-118673886#0" to="697200467#1" type="motorbike2"/>
    <trip id="mx_54" depart="42.12" from="689583171#15" to="295408467" type="motorbike2"/>
    <trip id="mx_55" depart="42.90" from="1034028677#1" to="295408468#0" type="motorbike2"/>
    <trip id="mx_56" depart="43.68" from="1279915900#0" to="-118570168#3" type="motorbike2"/>
    <trip id="mx_57" depart="44.46" from="694600787" to="295128790#0" type="motorbike2"/>
    <trip id="mx_58" depart="45.24" from="694772625#0" to="695040102#0" type="motorbike2"/>
    <trip id="mx_59" depart="46.02" from="642396065" to="-302751295#3" type="motorbike2"/>
    <trip id="mx_60" depart="46.80" from="-35950868#37" to="694600787" type="motorbike2"/>
    <trip id="mx_61" depart="47.58" from="828678745#0" to="695446625#1" type="motorbike2"/>
    <trip id="mx_62" depart="48.36" from="295408464#0" to="118555049#15" type="motorbike2"/>
    <trip id="mx_63" depart="49.14" from="118575976#0" to="35950897#15" type="motorbike2"/>
    <trip id="mx_64" depart="49.92" from="-673151198#0" to="779462187#1" type="motorbike2"/>
    <trip id="mx_65" depart="50.70" from="1282340737" to="408161670#13" type="motorbike2"/>
    <trip id="mx_66" depart="51.48" from="910359052#9" to="302751284#3" type="motorbike2"/>
    <trip id="mx_67" depart="52.26" from="698046188#1" to="828678873" type="motorbike2"/>
    <trip id="mx_68" depart="53.04" from="1280219265" to="695446625#3" type="motorbike2"/>
    <trip id="mx_69" depart="53.82" from="1355319663" to="1282340736" type="motorbike2"/>
    <trip id="mx_70" depart="54.60" from="689583171#3" to="295408462#0" type="motorbike2"/>
    <trip id="mx_71" depart="55.38" from="295408462#10" to="1282340717#0" type="motorbike2"/>
    <trip id="mx_72" depart="56.16" from="694774375#0" to="-39368999#8" type="motorbike2"/>
    <trip id="mx_73" depart="56.94" from="689583171#5" to="695504114#1" type="motorbike2"/>
    <trip id="mx_74" depart="57.72" from="694601892" to="694598419#1-AddedOnRampEdge" type="motorbike2"/>
    <trip id="mx_75" depart="58.50" from="1282340713#0" to="295128790#0" type="motorbike2"/>
    <trip id="mx_76" depart="59.28" from="676438753#2" to="-343236557#0" type="motorbike2"/>
    <trip id="mx_77" depart="60.06" from="694600787" to="295408452#16-AddedOffRampEdge" type="motorbike2"/>
    <trip id="mx_78" depart="60.84" from="964171425#4" to="1280219265" type="motorbike2"/>
    <trip id="mx_79" depart="61.62" from="-641082247" to="295449627#0" type="motorbike2"/>
    <trip id="mx_80" depart="62.40" from="-321069061" to="689583171#10" type="motorbike2"/>
    <trip id="mx_81" depart="63.18" from="964171425#0" to="1034028675#2" type="motorbike2"/>
    <trip id="mx_82" depart="63.96" from="39368999#9" to="828724694#2" type="motorbike2"/>
    <trip id="mx_83" depart="64.74" from="295408452#16-AddedOffRampEdge" to="964171425#0" type="motorbike2"/>
    <trip id="mx_84" depart="65.52" from="561667998" to="-35950850#10" type="motorbike2"/>
    <trip id="mx_85" depart="66.30" from="693885804#0" to="295408461#5" type="motorbike2"/>
    <trip id="mx_86" depart="67.08" from="-118555049#9" to="-372220804#21" type="motorbike2"/>
    <trip id="mx_87" depart="67.86" from="695446625#1" to="694600787" type="motorbike2"/>
    <trip id="mx_88" depart="68.64" from="695025562#0" to="964171425#0" type="motorbike2"/>
    <trip id="mx_89" depart="69.42" from="828724779#1" to="1280089201#0" type="motorbike2"/>
    <trip id="mx_90" depart="70.20" from="1279915897" to="828724693" type="motorbike2"/>
    <trip id="mx_91" depart="70.98" from="118672606#0" to="695040102#0" type="motorbike2"/>
    <trip id="mx_92" depart="71.76" from="689583171#0" to="673151142#4" type="motorbike2"/>
    <trip id="mx_93" depart="72.54" from="160628085#2" to="-35950868#19" type="motorbike2"/>
    <trip id="mx_94" depart="73.32" from="1034028675#6" to="160628085#2" type="motorbike2"/>
    <trip id="mx_95" depart="74.10" from="295449627#0" to="408161670#20" type="motorbike2"/>
    <trip id="mx_96" depart="74.88" from="697200467#9" to="295408452#16" type="motorbike2"/>
    <trip id="mx_97" depart="75.66" from="39368999#17" to="-118570163#1" type="motorbike2"/>
    <trip id="mx_98" depart="76.44" from="693885804#0" to="1282340752" type="motorbike2"/>
    <trip id="mx_99" depart="77.22" from="35950868#30" to="-372467090#0" type="motorbike2"/>
    <trip id="mx_100" depart="78.00" from="300947940" to="1391330070#9" type="motorbike2"/>
    <trip id="mx_101" depart="78.78" from="302751295#9" to="-828724768#2" type="motorbike2"/>
    <trip id="mx_102" depart="79.56" from="-828724786" to="694598419#0" type="motorbike2"/>
    <trip id="mx_103" depart="80.34" from="160628085#2" to="562701499" type="motorbike2"/>
    <trip id="mx_104" depart="81.12" from="696168834#0" to="1280614485" type="motorbike2"/>
    <trip id="mx_105" depart="81.90" from="694830395#0" to="779462187#1" type="motorbike2"/>
    <trip id="mx_106" depart="82.68" from="295408468#0" to="695510007#0" type="motorbike2"/>
    <trip id="mx_107" depart="83.46" from="1280614485" to="695295265#0" type="motorbike2"/>
    <trip id="mx_108" depart="84.24" from="-1282340713#1" to="695496039#2" type="motorbike2"/>
    <trip id="mx_109" depart="85.02" from="693885802#2" to="302751282" type="motorbike2"/>
    <trip id="mx_110" depart="85.80" from="694583900#0-AddedOffRampEdge" to="295408465#2-AddedOnRampEdge" type="motorbike2"/>
    <trip id="mx_111" depart="86.58" from="694601892" to="779462187#1" type="motorbike2"/>
    <trip id="mx_112" depart="87.36" from="676509076#1" to="563780767#0" type="motorbike2"/>
    <trip id="mx_113" depart="88.14" from="828678776" to="694772625#0" type="motorbike2"/>
    <trip id="mx_114" depart="88.92" from="-35950868#35" to="695429325#1" type="motorbike2"/>
    <trip id="mx_115" depart="89.70" from="-828678803#0" to="295394152#0" type="motorbike2"/>
    <trip id="mx_116" depart="90.48" from="302751295#1" to="408161670#27" type="motorbike2"/>
    <trip id="mx_117" depart="91.26" from="295408452#7" to="1034028675#0" type="motorbike2"/>
    <trip id="mx_118" depart="92.04" from="1280219265" to="1210918873#1" type="motorbike2"/>
    <trip id="mx_119" depart="92.82" from="1280219258#0" to="408161670#18" type="motorbike2"/>
    <trip id="mx_120" depart="93.60" from="118570167#1" to="295408461#9" type="motorbike2"/>
    <trip id="mx_121" depart="94.38" from="295449627#5" to="302751295#8" type="motorbike2"/>
    <trip id="mx_122" depart="95.16" from="295408462#1" to="302739240#4" type="motorbike2"/>
    <trip id="mx_123" depart="95.94" from="295449629#0" to="295408465#1" type="motorbike2"/>
    <trip id="mx_124" depart="96.72" from="828678832" to="-676458410#2" type="motorbike2"/>
    <trip id="mx_125" depart="97.50" from="695504114#4" to="695496039#2" type="motorbike2"/>
    <trip id="mx_126" depart="98.28" from="-828678806" to="35950864#3" type="motorbike2"/>
    <trip id="mx_127" depart="99.06" from="643237807#1" to="35950897#10" type="motorbike2"/>
    <trip id="mx_128" depart="99.84" from="694600787" to="964171425#5" type="motorbike2"/>
    <trip id="mx_129" depart="100.62" from="696168834#1" to="408161670#20" type="motorbike2"/>
    <trip id="mx_130" depart="101.40" from="695295265#0" to="693885802#0" type="motorbike2"/>
    <trip id="mx_131" depart="102.18" from="695502611#1" to="694594970#0" type="motorbike2"/>
    <trip id="mx_132" depart="102.96" from="695496039#3" to="697200467#8" type="motorbike2"/>
    <trip id="mx_133" depart="103.74" from="-39368999#0" to="828678749#0" type="motorbike2"/>
    <trip id="mx_134" depart="104.52" from="295449625#1" to="-118570149#2" type="motorbike2"/>
    <trip id="mx_135" depart="105.30" from="-641397124" to="118674615#0" type="motorbike2"/>
    <trip id="mx_136" depart="106.08" from="695025560#0" to="39368999#3" type="motorbike2"/>
    <trip id="mx_137" depart="106.86" from="-828678769#0" to="-561667995" type="motorbike2"/>
    <trip id="mx_138" depart="107.64" from="35950868#15" to="295408452#9" type="motorbike2"/>
    <trip id="mx_139" depart="108.42" from="118570175" to="-828724766" type="motorbike2"/>
    <trip id="mx_140" depart="109.20" from="408161670#22" to="-302751295#11" type="motorbike2"/>
    <trip id="mx_141" depart="109.98" from="695295267#0" to="695025562#0" type="motorbike2"/>
    <trip id="mx_142" depart="110.76" from="408161670#13" to="-828724694#2" type="motorbike2"/>
    <trip id="mx_143" depart="111.54" from="1282340717#1" to="295128790#4" type="motorbike2"/>
    <trip id="mx_144" depart="112.32" from="694774375#0" to="-118570159#14" type="motorbike2"/>
    <trip id="mx_145" depart="113.10" from="698936202#0" to="302737424#1" type="motorbike2"/>
    <trip id="mx_146" depart="113.88" from="295408452#7" to="828724796" type="motorbike2"/>
    <trip id="mx_147" depart="114.66" from="828678788#1" to="1280219265" type="motorbike2"/>
    <trip id="mx_148" depart="115.44" from="693416427" to="-695510008#3" type="motorbike2"/>
    <trip id="mx_149" depart="116.22" from="295408452#5" to="831070293" type="motorbike2"/>
    <trip id="mx_150" depart="117.00" from="1034028676#1" to="35950897#10" type="motorbike2"/>
    <trip id="mx_151" depart="117.78" from="695496039#2" to="295449627#4" type="motorbike2"/>
    <trip id="mx_152" depart="118.56" from="372220804#23" to="295408452#10" type="motorbike2"/>
    <trip id="mx_153" depart="119.34" from="1280219261" to="302751295#3" type="motorbike2"/>
    <trip id="mx_154" depart="120.12" from="828724718" to="1280614505#1" type="motorbike2"/>
    <trip id="mx_155" depart="120.90" from="695496039#3" to="693416739#3" type="motorbike2"/>
    <trip id="mx_156" depart="121.68" from="695040105#0" to="118672608#3" type="motorbike2"/>
    <trip id="mx_157" depart="122.46" from="696168834#1" to="295128790#0" type="motorbike2"/>
    <trip id="mx_158" depart="123.24" from="676439266" to="302751282-AddedOnRampEdge" type="motorbike2"/>
    <trip id="mx_159" depart="124.02" from="1210918872#1" to="295408463#1" type="motorbike2"/>
    <trip id="mx_160" depart="124.80" from="295449625#1" to="118567494" type="motorbike2"/>
    <trip id="mx_161" depart="125.58" from="-694715298" to="295408468#0" type="motorbike2"/>
    <trip id="mx_162" depart="126.36" from="295408452#10" to="-562701506#1" type="motorbike2"/>
    <trip id="mx_163" depart="127.14" from="910359052#0" to="1282340739" type="motorbike2"/>
    <trip id="mx_164" depart="127.92" from="695502614" to="35950897#10" type="motorbike2"/>
    <trip id="mx_165" depart="128.70" from="-118673913#6" to="828678860#2" type="motorbike2"/>
    <trip id="mx_166" depart="129.48" from="689583171#3" to="295408461#0" type="motorbike2"/>
    <trip id="mx_167" depart="130.26" from="693330103#0" to="1280614505#1" type="motorbike2"/>
    <trip id="mx_168" depart="131.04" from="35950868#26" to="295408466#1" type="motorbike2"/>
    <trip id="mx_169" depart="131.82" from="-828678742" to="-676450957" type="motorbike2"/>
    <trip id="mx_170" depart="132.60" from="694594970#0" to="408161670#24" type="motorbike2"/>
    <trip id="mx_171" depart="133.38" from="295128790#0" to="302751282-AddedOnRampEdge" type="motorbike2"/>
    <trip id="mx_172" depart="134.16" from="695040105#3" to="698936203#4" type="motorbike2"/>
    <trip id="mx_173" depart="134.94" from="695040552#1" to="295394152#1" type="motorbike2"/>
    <trip id="mx_174" depart="135.72" from="-118570168#8" to="-697822848#0" type="motorbike2"/>
    <trip id="mx_175" depart="136.50" from="693885804#0" to="697200467#9" type="motorbike2"/>
    <trip id="mx_176" depart="137.28" from="-39368999#2" to="910359052#8" type="motorbike2"/>
    <trip id="mx_177" depart="138.06" from="910359052#9" to="1282340736" type="motorbike2"/>
    <trip id="mx_178" depart="138.84" from="295408464#0-AddedOffRampEdge" to="695295267#0" type="motorbike2"/>
    <trip id="mx_179" depart="139.62" from="779462187#1" to="779462187#1" type="motorbike2"/>
    <trip id="mx_180" depart="140.40" from="1034028677#0" to="695025562#0" type="motorbike2"/>
    <trip id="mx_181" depart="141.18" from="1280614485" to="828724758#0" type="motorbike2"/>
    <trip id="mx_182" depart="141.96" from="695496039#3" to="693885803#27" type="motorbike2"/>
    <trip id="mx_183" depart="142.74" from="35950897#0" to="1280089201#0" type="motorbike2"/>
    <trip id="mx_184" depart="143.52" from="295128790#0" to="295394152#0" type="motorbike2"/>
    <trip id="mx_185" depart="144.30" from="695040552#1" to="697200467#9" type="motorbike2"/>
    <trip id="mx_186" depart="145.08" from="695496039#3" to="695295267#2" type="motorbike2"/>
    <trip id="mx_187" depart="145.86" from="693885803#27" to="828724754#1" type="motorbike2"/>
    <trip id="mx_188" depart="146.64" from="698936203#0" to="-118567489#1" type="motorbike2"/>
    <trip id="mx_189" depart="147.42" from="-372467090#0" to="1034028676#1" type="motorbike2"/>
    <trip id="mx_190" depart="148.20" from="1282340737" to="408161672#0" type="motorbike2"/>
    <trip id="mx_191" depart="148.98" from="295408459#7" to="828724698" type="motorbike2"/>
    <trip id="mx_192" depart="149.76" from="694600787" to="-676453140#0" type="motorbike2"/>
    <trip id="mx_193" depart="150.54" from="695025560#0" to="1034028675#2" type="motorbike2"/>
    <trip id="mx_194" depart="151.32" from="-695446623#1" to="694598419#0" type="motorbike2"/>
    <trip id="mx_195" depart="152.10" from="-372466117#0" to="695030266" type="motorbike2"/>
    <trip id="mx_196" depart="152.88" from="694772625#0" to="693885804#0" type="motorbike2"/>
    <trip id="mx_197" depart="153.66" from="-563780767#0" to="1280089222" type="motorbike2"/>
    <trip id="mx_198" depart="154.44" from="695040105#3" to="35950959#4" type="motorbike2"/>
    <trip id="mx_199" depart="155.22" from="295408452#5" to="1096471623#0" type="motorbike2"/>
    <trip id="mx_200" depart="156.00" from="295408452#6" to="1418093030" type="motorbike2"/>
    <trip id="mx_201" depart="156.78" from="118673886#1" to="779462187#1" type="motorbike2"/>
    <trip id="mx_202" depart="157.56" from="-118688839#6" to="295408462#10" type="motorbike2"/>
    <trip id="mx_203" depart="158.34" from="-39368999#14" to="693885803#17" type="motorbike2"/>
    <trip id="mx_204" depart="159.12" from="562701506#0" to="673151142#4" type="motorbike2"/>
    <trip id="mx_205" depart="159.90" from="695030266" to="694772625#0" type="motorbike2"/>
    <trip id="mx_206" depart="160.68" from="-118575974#4" to="295128790#0" type="motorbike2"/>
    <trip id="mx_207" depart="161.46" from="695490086#1" to="39368999#14" type="motorbike2"/>
    <trip id="mx_208" depart="162.24" from="295408468#4" to="704621733#0" type="motorbike2"/>
    <trip id="mx_209" depart="163.02" from="35950864#25" to="344658497#2" type="motorbike2"/>
    <trip id="mx_210" depart="163.80" from="697200467#0" to="1280089201#2" type="motorbike2"/>
    <trip id="mx_211" depart="164.58" from="404709476" to="-562709015#4" type="motorbike2"/>
    <trip id="mx_212" depart="165.36" from="295408452#7" to="695496039#3" type="motorbike2"/>
    <trip id="mx_213" depart="166.14" from="694830395#0" to="-676714129" type="motorbike2"/>
    <trip id="mx_214" depart="166.92" from="694830396" to="1280219260#1" type="motorbike2"/>
    <trip id="mx_215" depart="167.70" from="-663749308#1" to="695496042#0" type="motorbike2"/>
    <trip id="mx_216" depart="168.48" from="302751295#25" to="295408452#10" type="motorbike2"/>
    <trip id="mx_217" depart="169.26" from="695446625#1" to="694775628#0" type="motorbike2"/>
    <trip id="mx_218" depart="170.04" from="828678775" to="-676509072#2" type="motorbike2"/>
    <trip id="mx_219" depart="170.82" from="641397122#1" to="695496039#2" type="motorbike2"/>
    <trip id="mx_220" depart="171.60" from="39368999#1" to="695025562#0" type="motorbike2"/>
    <trip id="mx_221" depart="172.38" from="1034028677#1" to="295408461#4" type="motorbike2"/>
    <trip id="mx_222" depart="173.16" from="695490086#1" to="-828724759" type="motorbike2"/>
    <trip id="mx_223" depart="173.94" from="697200467#11" to="1034027336#1" type="motorbike2"/>
    <trip id="mx_224" depart="174.72" from="-1346339141#1" to="697200467#10" type="motorbike2"/>
    <trip id="mx_225" depart="175.50" from="695446625#3" to="-118688839#0" type="motorbike2"/>
    <trip id="mx_226" depart="176.28" from="694594970#0" to="828678874#0" type="motorbike2"/>
    <trip id="mx_227" depart="177.06" from="693330103#0" to="408161672#1" type="motorbike2"/>
    <trip id="mx_228" depart="177.84" from="295408462#10" to="697200467#4" type="motorbike2"/>
    <trip id="mx_229" depart="178.62" from="-828724768#0" to="1418093030" type="motorbike2"/>
    <trip id="mx_230" depart="179.40" from="695502611#0" to="-828678857" type="motorbike2"/>
    <trip id="mx_231" depart="180.18" from="695502613" to="1280219260#0" type="motorbike2"/>
    <trip id="mx_232" depart="180.96" from="-979325965#1" to="1391330070#6" type="motorbike2"/>
    <trip id="mx_233" depart="181.74" from="698936203#0" to="693416739#3" type="motorbike2"/>
    <trip id="mx_234" depart="182.52" from="828724753" to="695496039#3" type="motorbike2"/>
    <trip id="mx_235" depart="183.30" from="697200467#8" to="828678903" type="motorbike2"/>
    <trip id="mx_236" depart="184.08" from="694600787" to="408161670#20" type="motorbike2"/>
    <trip id="mx_237" depart="184.86" from="-39368999#5" to="405962811#2" type="motorbike2"/>
    <trip id="mx_238" depart="185.64" from="698046188#1" to="695040552#0" type="motorbike2"/>
    <trip id="mx_239" depart="186.42" from="295449625#0" to="295449625#1" type="motorbike2"/>
    <trip id="mx_240" depart="187.20" from="1280614504#0" to="302751282" type="motorbike2"/>
    <trip id="mx_241" depart="187.98" from="694775628#2" to="-39368999#12" type="motorbike2"/>
    <trip id="mx_242" depart="188.76" from="-562709015#0" to="1034028678" type="motorbike2"/>
    <trip id="mx_243" depart="189.54" from="295408452#9" to="295449627#0" type="motorbike2"/>
    <trip id="mx_244" depart="190.32" from="828678770" to="-673151181" type="motorbike2"/>
    <trip id="mx_245" depart="191.10" from="-35950868#33" to="1280219258#0" type="motorbike2"/>
    <trip id="mx_246" depart="191.88" from="-895427360" to="160628085#0" type="motorbike2"/>
    <trip id="mx_247" depart="192.66" from="295408468#4" to="694598419#1-AddedOnRampEdge" type="motorbike2"/>
    <trip id="mx_248" depart="193.44" from="697200467#11" to="295449627#4" type="motorbike2"/>
    <trip id="mx_249" depart="194.22" from="-405962816#0" to="697200467#8" type="motorbike2"/>
    <trip id="mx_250" depart="195.00" from="1279915919" to="302751282-AddedOnRampEdge" type="motorbike2"/>
    <trip id="mx_251" depart="195.78" from="693885802#0" to="779462187#1" type="motorbike2"/>
    <trip id="mx_252" depart="196.56" from="118570167#0" to="697200467#1" type="motorbike2"/>
    <trip id="mx_253" depart="197.34" from="694598419#1" to="408161670#27" type="motorbike2"/>
    <trip id="mx_254" depart="198.12" from="689583171#11" to="295408465#2-AddedOnRampEdge" type="motorbike2"/>
    <trip id="mx_255" depart="198.90" from="-295386152#0" to="118673921#2" type="motorbike2"/>
    <trip id="mx_256" depart="199.68" from="295408452#0" to="372220804#4" type="motorbike2"/>
    <trip id="mx_257" depart="200.46" from="-561913437#2" to="695446625#3" type="motorbike2"/>
    <trip id="mx_258" depart="201.24" from="695295267#2" to="295408460#2" type="motorbike2"/>
    <trip id="mx_259" depart="202.02" from="697200467#0" to="910359052#3" type="motorbike2"/>
    <trip id="mx_260" depart="202.80" from="118672606#1" to="-372220804#33" type="motorbike2"/>
    <trip id="mx_261" depart="203.58" from="1282340735" to="35950925#2" type="motorbike2"/>
    <trip id="mx_262" depart="204.36" from="828678874#1" to="696168834#1" type="motorbike2"/>
    <trip id="mx_263" depart="205.14" from="-828724758#1" to="295408452#16-AddedOffRampEdge" type="motorbike2"/>
    <trip id="mx_264" depart="205.92" from="295408464#0" to="964171425#6" type="motorbike2"/>
    <trip id="mx_265" depart="206.70" from="695295265#0" to="673151142#3" type="motorbike2"/>
    <trip id="mx_266" depart="207.48" from="295408460#3" to="-372464937#0" type="motorbike2"/>
    <trip id="mx_267" depart="208.26" from="1282340719" to="295408452#16-AddedOffRampEdge" type="motorbike2"/>
    <trip id="mx_268" depart="209.04" from="695490087#1" to="697200467#8" type="motorbike2"/>
    <trip id="mx_269" depart="209.82" from="295408452#6" to="35950883#0" type="motorbike2"/>
    <trip id="mx_270" depart="210.60" from="642475789" to="1280219261" type="motorbike2"/>
    <trip id="mx_271" depart="211.38" from="295449625#0" to="695510007#1" type="motorbike2"/>
    <trip id="mx_272" depart="212.16" from="910359052#8" to="693885804#0" type="motorbike2"/>
    <trip id="mx_273" depart="212.94" from="828724820" to="199383481-AddedOnRampEdge" type="motorbike2"/>
    <trip id="mx_274" depart="213.72" from="1280219259#1" to="1280219258#0" type="motorbike2"/>
    <trip id="mx_275" depart="214.50" from="1279915919" to="295408459#7" type="motorbike2"/>
    <trip id="mx_276" depart="215.28" from="1280089222" to="695025560#0" type="motorbike2"/>
    <trip id="mx_277" depart="216.06" from="697200467#10" to="118688839#0" type="motorbike2"/>
    <trip id="mx_278" depart="216.84" from="35950942#1" to="408161670#0" type="motorbike2"/>
    <trip id="mx_279" depart="217.62" from="641397122#1" to="694598419#0" type="motorbike2"/>
    <trip id="mx_280" depart="218.40" from="39368999#14" to="295408452#6" type="motorbike2"/>
    <trip id="mx_281" depart="219.18" from="295408462#0" to="1280219259#0" type="motorbike2"/>
    <trip id="mx_282" depart="219.96" from="663749305" to="-295449622#2" type="motorbike2"/>
    <trip id="mx_283" depart="220.74" from="689583171#10" to="695295265#0" type="motorbike2"/>
    <trip id="mx_284" depart="221.52" from="1282340772" to="673151142#3" type="motorbike2"/>
    <trip id="mx_285" depart="222.30" from="-302751295#21" to="35950882#7" type="motorbike2"/>
    <trip id="mx_286" depart="223.08" from="372466122#1" to="695295267#2" type="motorbike2"/>
    <trip id="mx_287" depart="223.86" from="828724755#1" to="693885804#0" type="motorbike2"/>
    <trip id="mx_288" depart="224.64" from="295386152#12" to="694598419#1-AddedOnRampEdge" type="motorbike2"/>
    <trip id="mx_289" depart="225.42" from="1034028675#2" to="295408461#9" type="motorbike2"/>
    <trip id="mx_290" depart="226.20" from="295408452#1" to="694774375#0" type="motorbike2"/>
    <trip id="mx_291" depart="226.98" from="828678799" to="-831070297#1" type="motorbike2"/>
    <trip id="mx_292" depart="227.76" from="695502611#0" to="695030266" type="motorbike2"/>
    <trip id="mx_293" depart="228.54" from="698936203#0" to="910359052#5" type="motorbike2"/>
    <trip id="mx_294" depart="229.32" from="-1387292391" to="118570175" type="motorbike2"/>
    <trip id="mx_295" depart="230.10" from="1280614485" to="295449627#4" type="motorbike2"/>
    <trip id="mx_296" depart="230.88" from="408161670#0" to="35950850#0" type="motorbike2"/>
    <trip id="mx_297" depart="231.66" from="694598419#1-AddedOnRampEdge" to="693416739#3" type="motorbike2"/>
    <trip id="mx_298" depart="232.44" from="828678798#0" to="695040105#0" type="motorbike2"/>
    <trip id="mx_299" depart="233.22" from="-302751295#7" to="-118575972#2" type="motorbike2"/>
    <trip id="mx_300" depart="234.00" from="696991611#2" to="118672444#2" type="motorbike2"/>
    <trip id="mx_301" depart="234.78" from="828678860#2" to="694598419#1" type="motorbike2"/>
    <trip id="mx_302" depart="235.56" from="695040552#1" to="295408462#12" type="motorbike2"/>
    <trip id="mx_303" depart="236.34" from="-35950868#2" to="779462187#0" type="motorbike2"/>
    <trip id="mx_304" depart="237.12" from="302751284#3" to="295408461#4" type="motorbike2"/>
    <trip id="mx_305" depart="237.90" from="372467084#0" to="693885804#0" type="motorbike2"/>
    <trip id="mx_306" depart="238.68" from="118566872#1" to="695510007#0" type="motorbike2"/>
    <trip id="mx_307" depart="239.46" from="-302751286#2" to="-828724726#0" type="motorbike2"/>
    <trip id="mx_308" depart="240.24" from="-828724777#0" to="1282340736" type="motorbike2"/>