<?xml version="1.0" encoding="UTF-8"?>

<!-- generated on 2026-03-22T01:58:40.335310+07:00 by Eclipse SUMO duarouter 1.26.0
<duarouterConfiguration xmlns:xsi="http://www.w3.org/2001/XMLSchema-instance" xsi:noNamespaceSchemaLocation="http://sumo.dlr.de/xsd/duarouterConfiguration.xsd">

    <input>
        <net-file value="D:\WeSaveTime-ASEAN\sumo\danang\danang.net.xml"/>
        <additional-files value="D:\WeSaveTime-ASEAN\sumo\danang\danang.vtypes.xml"/>
        <route-files value="D:\WeSaveTime-ASEAN\sumo\danang\danang.trips.xml"/>
    </input>

    <output>
        <output-file value="D:\WeSaveTime-ASEAN\sumo\danang\danang.rou.xml"/>
    </output>

    <processing>
        <repair value="true"/>
    </processing>

    <report>
        <no-warnings value="true"/>
        <ignore-errors value="true"/>
    </report>

</duarouterConfiguration>
-->

<routes xmlns:xsi="http://www.w3.org/2001/XMLSchema-instance" xsi:noNamespaceSchemaLocation="http://sumo.dlr.de/xsd/routes_file.xsd">
    <vType id="motorbike" length="2.20" maxSpeed="11.11" speedFactor="normc(1.00,0.15,0.20,2.00)" vClass="motorcycle" guiShape="motorcycle" width="0.80" color="230,179,51" accel="3.0" decel="4.5" sigma="0.7"/>
    <vehicle id="ma_0" type="motorbike" depart="0.00">
        <route edges="895446531 -895446531 -118567489#3 -118567489#2 -343236557#0 35950883#9 372220804#0 372220804#2 372220804#3 372220804#4 372220804#5 372220804#6 372220804#14 372220804#16 372220804#17 372220804#18 372220804#19 372220804#20 372220804#21 372220804#22 372220804#23 372220804#24 372220804#29 372220804#30 372220804#31 372220804#32 372220804#33 372220804#34 372220804#35 -695544823 39368999#14 39368999#15 39368999#16 39368999#17 39368999#21 35950864#18 35950864#19 118674615#0 118674615#2 295408462#8"/>
    </vehicle>
    <vType id="motorbike2" length="2.00" maxSpeed="12.50" speedFactor="normc(1.10,0.20,0.20,2.00)" vClass="motorcycle" guiShape="motorcycle" width="0.70" color="51,153,230" accel="3.5" decel="5.0" sigma="0.8"/>
    <vehicle id="mx_0" type="motorbike2" depart="0.00">
        <route edges="-118673944#3 -118673944#2 -118673944#1 -118673944#0 -1160316964 -673151198#3 1280614484 1280614485 1280219257#0 1280219257#1 1280219257#2 694767769 695496039#0 695496039#1 695496039#2 695496039#3 695502614 695502613 695502611#0 695502611#1 695504114#0 695504114#1 695504114#4 295449627#0 295449627#2 295449627#3 295449627#4 295449627#5 698046188#1 1279915897 1282340739 118567494 1279915919 35950925#0 35950925#1 35950925#2 -295386152#9 -295386152#8 -295386152#7 -295386152#6 -295386152#4 698936203#9"/>
    </vehicle>
    <vType id="car" length="4.50" maxSpeed="13.89" speedFactor="normc(1.00,0.10,0.20,2.00)" vClass="passenger" guiShape="passenger" width="1.80" color="51,153,230" accel="2.5" decel="4.0" sigma="0.5"/>
    <vehicle id="ca_0" type="car" depart="0.00">
        <route edges="-828724779#1 828724778 -828724778 828724779#1 39368999#15 39368999#16 118673937#0 118673937#3 118673937#4 -562701507#1 -562701507#0 -372466116#1 -372466116#0 1160396738 -372466117#3 -372466117#2 -372466117#1 -372466117#0 -302751295#9 -302751295#8 -562634341 118672633#1 118672633#2 118672633#3 561426521 35950882#7 35950882#8"/>
    </vehicle>
    <vType id="car_suv" length="4.80" maxSpeed="13.89" speedFactor="normc(1.00,0.10,0.20,2.00)" vClass="passenger" guiShape="passenger/sedan" width="2.00" color="204,51,51" accel="2.2" decel="3.8" sigma="0.5"/>
    <vehicle id="sv_0" type="car_suv" depart="0.00">
        <route edges="-561913438#4 828724695 -828724695 561913438#4 561913438#5 -118673937#3 -118673937#2 -39368999#16 -39368999#15 -39368999#14 695544823 -372220804#35 -372220804#34 -372220804#33 -372220804#32 -372220804#31 -372220804#30 -372220804#29 -372220804#28 -372220804#23 -372220804#22 -372220804#21 -372220804#20 -372220804#19 -372220804#18 -372220804#17 -372220804#16 -372220804#14 -372220804#13 -372220804#5 -372220804#4 -372220804#3 -372220804#2 -372220804#1 372220805#0 694768223#1 694768223#3 694768221#0 694768221#1 694768221#2"/>
    </vehicle>
    <vType id="taxi" length="4.50" maxSpeed="13.89" speedFactor="normc(0.90,0.10,0.20,2.00)" vClass="passenger" guiShape="passenger/sedan" width="1.80" color="255,255,51" accel="2.5" decel="4.0" sigma="0.4"/>
    <vehicle id="tx_0" type="taxi" depart="0.00">
        <route edges="408161671#1 408161671#2 408161671#3 689583171#9 689583171#11 689583171#12 689583171#17 689583171#19 689583171#22 689583171#23 689583171#24 689583171#27 695025560#0 695025560#1 256668722 1096471623#0 35950897#0 35950897#1 35950897#6 35950897#10 35950897#13 35950897#15 964171425#0 964171425#2 964171425#3 964171425#4 964171425#5"/>
    </vehicle>
    <vType id="bus" length="12.00" maxSpeed="11.11" speedFactor="normc(0.80,0.05,0.20,2.00)" vClass="bus" guiShape="bus" width="2.50" color="51,204,77" accel="1.5" decel="3.0" sigma="0.4"/>
    <vehicle id="bs_0" type="bus" depart="0.00">
        <route edges="39368999#10 39368999#11 39368999#13 695544823 -372220804#35 -372220804#34 -372220804#33 -372220804#32 -372220804#31 -372220804#30 -372220804#29 -372220804#28 -372220804#23 -372220804#22 -372220804#21 -372220804#20 -372220804#19 -372220804#18 -372220804#17 -372220804#16 295449627#3 295449627#4 295449627#5 698046188#1 1279915897 1282340739 118567494 1279915919 35950925#0 35950925#1 35950925#2 35950925#3 35950925#5 35950925#6 35950925#7 35950925#9 1279915920#0 -1124338485#0 641073883#1 641073883#2 641073883#3 641073883#5 35950923#2 35950923#3 717756676"/>
    </vehicle>
    <vType id="truck" length="10.00" maxSpeed="8.33" speedFactor="normc(0.70,0.10,0.20,2.00)" vClass="truck" guiShape="truck" width="2.50" color="179,77,77" accel="1.2" decel="3.0" sigma="0.4"/>
    <vehicle id="tk_0" type="truck" depart="0.00">
        <route edges="695030266 695033474#1 1279915895#0 295128790#4 295128790#10 693885804#0 693885804#2 693416427 693416739#0 693416739#3 408161672#0 408161672#2"/>
    </vehicle>
    <vType id="delivery" length="6.00" maxSpeed="11.11" speedFactor="normc(0.85,0.10,0.20,2.00)" vClass="truck" guiShape="truck" width="2.20" color="153,102,51" accel="1.8" decel="3.5" sigma="0.5"/>
    <vehicle id="dv_0" type="delivery" depart="0.00">
        <route edges="694772625#0 1210918873#0 1392384124 693330103#2 1210918872#0 1210918872#1 1282340717#2 1282340719 1034027336#0 910359052#0 910359052#3 910359052#5 910359052#7 910359052#8 910359052#9 697200467#0 -35950942#2 -35950942#1 -35950942#0 302751295#9 372466117#0 372466117#1 372466117#2 372466117#3 -1160396738 372466116#0 372466116#1 562701507#0 562701507#1 -118673937#4 -118673937#3 -118673937#2 -39368999#16 -39368999#15 -39368999#14 -39368999#13 -39368999#12 -39368999#10 -39368999#9 -39368999#8 -39368999#5 -39368999#3 -39368999#2 -39368999#1 -39368999#0 695490087#1 695490086#1 643264676 695504114#0"/>
    </vehicle>
    <vehicle id="ma_1" type="motorbike" depart="0.80">
        <route edges="408161670#17 -118573603#2 -118573603#1 -118573603#0 -35950868#14 -35950868#13 -35950868#12 -35950868#10 -35950868#9 -35950868#8 -35950868#7 -35950868#6 -35950868#5 -35950868#4 -35950868#3 -35950868#2 -35950868#0 -695510008#3 -695510008#1 -695510008#0 1282340739 118567494 1279915919 35950925#0 35950925#1 35950925#2 35950925#3 35950925#5 35950925#6 35950925#7 35950925#9 1279915920#0 -1124338485#0 641073883#1 641073883#2 641073883#3 641073883#5 35950923#2 35950923#3 717756677 693406008#0 703791944#0 703791944#1 703791944#3 1281158299#0 -696348482#2 693558194"/>
    </vehicle>
    <vehicle id="mx_1" type="motorbike2" depart="1.58">
        <route edges="118573606#10 118573606#13 118573603#2 408161670#18 408161670#20 408161670#21 408161670#22 408161670#23 408161670#24 -118573597 765351891#4 118555049#0 118555049#1 118555049#2 118555049#5 118555049#8 118555049#10 118555049#15 118555049#17 910359052#3"/>
    </vehicle>
    <vehicle id="ma_2" type="motorbike" depart="1.60">
        <route edges="-372464937#4 -372464937#1 -372464937#0 118672608#3 -561474235 828724754#2 828724726#0 828724726#1 372466117#3 -1160396738 372466116#0 372466116#1 562701507#0 562701507#1 -118673937#4 -118673937#3 -118673937#2 39368999#17 39368999#21 694715299#1 694715298 1280219265 1280219261 1282340737 1282340736 160628085#0 160628085#1 160628085#2 1280089222 1280089201#0 295408452#0 295408452#1"/>
    </vehicle>
    <vehicle id="ma_3" type="motorbike" depart="2.40">
        <route edges="295408468#4 694750604#0 695496039#2 695496039#3 695502614 695502613 695502611#0 695502611#1 695504114#0 695504114#1 695504114#4 295449627#0 295449627#2 372220804#16 372220804#17 372220804#18 372220804#19 372220804#20 372220804#21 118570168#0 118570168#1 118673913#0 118673913#4 -118570181#9 -118570181#8 -118570181#7 -118570181#6 -828678814#7"/>
    </vehicle>
    <vehicle id="ca_1" type="car" depart="3.00">
        <route edges="302739240#0 302739240#3 302739240#4 693885802#2 295386152#0 295386152#1 295386152#2 295386152#3 295386152#4 295386152#5 295386152#7 295386152#8 295386152#9 35950925#3 35950925#5 35950925#6 35950925#7 35950925#9 1279915920#0 -1124338485#0 641073883#1 641073883#2 641073883#3 641073883#5 35950923#2 35950923#3 717756676 1279880688#0 1279880688#1 1279880688#2 1279880688#3 1279880688#5 1279880688#7 717756679#1"/>
    </vehicle>
    <vehicle id="mx_2" type="motorbike2" depart="3.16">
        <route edges="35950868#37 35950868#38 302751295#0 302751295#1 302751295#2 302751295#3 302751295#4 302751295#5 302751295#6 302751295#7 302751295#8 302751295#9 302751295#10 302751295#11 302751295#12 302751295#13 302751295#15 302751295#17 302751295#19 302751295#21 302751295#22 697200467#10 697200467#11 1280089201#2 1280219265 1280219261 1282340737 1282340736 160628085#0 160628085#1 160628085#2 295408461#0 295408461#1 295408461#4 295408461#5 295408461#9"/>
    </vehicle>
    <vehicle id="ma_4" type="motorbike" depart="3.20">
        <route edges="295408464#0-AddedOffRampEdge 1280614504#0 1280614504#1 1280614504#2 1280219250 694767769 695496039#0 695496039#1 695496039#2 695496039#3 695502614 695502613 695502611#0 695502611#1 695504114#0 695504114#1 695504114#4 295449627#0 295449627#2 372220804#16 372220804#17 828678817#3 828678816#1 828678739 828678810#1 828678792 -828678794#0 -118570169#0 642047427#0 -344658497#0"/>
    </vehicle>
    <vehicle id="ma_5" type="motorbike" depart="4.00">
        <route edges="1165643361 697200467#0 -35950942#2 -35950942#1 -35950942#0 302751295#9 372466117#0 372466117#1 372466117#2 372466117#3 -1160396738 372466116#0 372466116#1 562701507#0 562701507#1 -118673937#4 -118673937#3 -118673937#2 -39368999#16 -39368999#15 -39368999#14 -39368999#13 -39368999#12 -39368999#10 -39368999#9 -39368999#8 -39368999#5 -39368999#3 -118570183#3 -118570183#2 -828724795#1 828724794 118570149#2 39368999#2"/>
    </vehicle>
    <vehicle id="mx_3" type="motorbike2" depart="4.74">
        <route edges="695502611#0 695502611#1 695504114#0 695504114#1 695504114#4 295449627#0 295449627#2 295449627#3 295449627#4 295449627#5 698046188#1 1279915897 1282340739 118567494 1279915919 35950925#0 35950925#1 35950925#2 35950925#3 118575972#0 118575972#1 118575972#3 118575972#5 689583171#23 689583171#24 689583171#27 695025560#0"/>
    </vehicle>
    <vehicle id="ma_6" type="motorbike" depart="4.80">
        <route edges="689583171#23 689583171#24 343417844#0 693416739#0 371908669#0 689583178#1 689583178#3 689583178#5 1279915921 641073883#0 641073883#1 641073883#2 641073883#3 641073883#5 35950923#2 35950923#3 717756676 1279880688#0 1279880688#1 1279880688#2 644313265 694530227#5 694530227#7 694530227#8"/>
    </vehicle>
    <vehicle id="ma_7" type="motorbike" depart="5.60">
        <route edges="-562701499 562701499 35950868#11 35950868#13 35950868#14 35950868#15 35950868#16 35950868#17 35950868#18 35950868#19 35950868#20 35950868#21 35950868#22 35950868#23 35950868#24 35950868#26 35950868#27 35950868#29 35950868#30 35950868#31 35950868#32 35950868#34 35950868#36 35950868#37 35950868#38 -35950882#14 -35950882#13 -35950882#10 -35950882#9 -35950882#8 -35950882#7 -35950882#5 -35950882#2 1034028675#2 1034028675#6 1034027336#2 1282340718 1282340717#0 1282340717#1 1282340717#2 1034028677#0"/>
    </vehicle>
    <vehicle id="ca_2" type="car" depart="6.00">
        <route edges="35950864#14 35950864#17 694715299#1 694715298 1280219265 1280219261 1282340737 1282340736 160628085#0 160628085#1 160628085#2 1280089222 1280089201#0 295408452#0 295408452#1 295408452#5 295408452#6 295408452#7 295408452#8 295408452#9 295408452#10 295408452#11 295408452#16 295408452#16-AddedOffRampEdge 1034028675#0 1034028675#2 1034028675#6 1034027336#2 1282340718 1282340717#0 1282340717#1 1282340717#2 1034028677#0 1034028677#1 1282340735"/>
    </vehicle>
    <vehicle id="mx_4" type="motorbike2" depart="6.32">
        <route edges="405962812#1 -405962811#1 35950864#14 35950864#17 -39368999#21 -39368999#20 -39368999#16 -39368999#15 -39368999#14 695544823 -372220804#35 -372220804#34 -372220804#33 -372220804#32 -372220804#31 -372220804#30 -372220804#29 -372220804#28 -372220804#23 -372220804#22 -372220804#21 -372220804#20 -372220804#19 -372220804#18 -372220804#17 -372220804#16 295449627#3 295449627#4 295449627#5 698046188#1 1279915897 1282340739 695510007#0 695510007#1 295128790#0 295128790#3 295128790#4 295128790#10 693885804#0 693885804#2 779462187#0 779462187#1"/>
    </vehicle>
    <vehicle id="ma_8" type="motorbike" depart="6.40">
        <route edges="295408452#6 295408452#7 295408452#8 295408452#9 -302751295#23 697200467#10 697200467#11 1280089201#2 1280219265 694601892 695295267#0 695295267#2 695295265#0 295408460#2 828724790#1 642086911 -35950864#30 118575974#1 -35950959#11 -35950959#8 -35950959#6 -35950959#4 -35950959#3 -35950959#2 -35950959#1 -35950959#0"/>
    </vehicle>
    <vehicle id="ma_9" type="motorbike" depart="7.20">
        <route edges="641073883#0 1124338485#0 698936203#2 698936203#3 698936203#5 698936203#6 698936203#7 698936203#9 698936203#10 698936203#11 695040105#0 695040105#3 695040105#5 695040552#0 695040552#1 1279915919 1279915896#0 1279915896#1 1282715056 696168834#0 696168834#1 696169688 696169687#1 372220804#16 372220804#17 372220804#18 372220804#19 372220804#20 372220804#21 372220804#22 372220804#23 -1387292390#4 -1387292390#3 -118566872#6 -118566872#4 -118566872#3 -118566872#2 -118566872#1 -118566872#0 -39368999#3"/>
    </vehicle>
    <vehicle id="sv_1" type="car_suv" depart="7.50">
        <route edges="295408452#8 295408452#9 -302751295#23 697200467#10 697200467#11 1280089201#2 1280219265 694601892 695295267#0"/>
    </vehicle>
    <vehicle id="tx_1" type="taxi" depart="7.50">
        <route edges="693330103#2 1210918872#0 1210918872#1 1282340717#2 1282340719 1034027336#0 910359052#0 910359052#3 910359052#5 910359052#7 910359052#8 910359052#9 697200467#0 697200467#1 697200467#4 697200467#4-AddedOffRampEdge 697200467#7 697200467#8 697200467#9 697200467#10 697200467#11 1280089201#2 1280219265 694601892 695295267#0 695295267#2 695295265#0 295408460#2 295408460#3 1280219259#0 1280219259#1 1280219266 1280219260#0 1280219260#1 118570175"/>
    </vehicle>
    <vehicle id="mx_5" type="motorbike2" depart="7.90">
        <route edges="642048875#5 -642048875#6 -118685500#0 -1124342338#1 -35950952#9 -35950952#0 -830713110#2 -830713109#1 -830713109#0 -408162779#4 -408162779#3 -408162779#2 -408162779#0 694768222#0 694768222#1 694768222#2 694768222#3 -694768223#7 -694768223#1 -372220805#4 -35950883#9 -35950883#8 -35950883#6 -295386152#11 -295386152#10 -295386152#9 -295386152#8 -295386152#7 -295386152#6 -295386152#4 -295386152#3 -295386152#2 -295386152#1 -118575975#6 -118575975#5 -118575975#4 -118575975#3 -118575975#2"/>
    </vehicle>
    <vehicle id="ma_10" type="motorbike" depart="8.00">
        <route edges="695496039#1 695496039#2 695496039#3 695502614 695502613 695502611#0 695502611#1 695504114#0 695504114#1 695504114#4 295449627#0 295449627#2 -372220804#14 -372220804#13 -372220804#5 -372220804#4 -372220804#3 -372220804#2 -372220804#1 372220805#0 694768223#1 694768223#3 694768221#0 694768221#1 694768221#2 694768221#3 408162779#0 408162779#1 408162779#3 408162779#4 830713109#0 830713109#1 676491483#1 676491483#2 676491483#3 830713112#0 830713112#1 830713112#2"/>
    </vehicle>
    <vehicle id="ma_11" type="motorbike" depart="8.80">
        <route edges="1279915919 1279915896#0 1279915896#1 1282715056 1282340752 1279915897 695510008#0 695510008#1 695510008#2 35950868#0 35950868#1 35950868#3 35950868#4"/>
    </vehicle>
    <vehicle id="ca_3" type="car" depart="9.00">
        <route edges="695496040 1280219250 694767769 695496039#0"/>
    </vehicle>
    <vehicle id="bs_1" type="bus" depart="9.23">
        <route edges="-830713113#8 372589035 372589037 35950832#6 35950832#7 371907294#0 371907294#2 371907294#4 -408161669#4 -408161669#3 118674601#0 372220804#0 372220804#2 372220804#3 372220804#4 372220804#5 372220804#6 372220804#14 372220804#16 372220804#17 372220804#18 372220804#19 372220804#20 372220804#21 372220804#22 372220804#23 372220804#24 372220804#29 372220804#30 372220804#31 372220804#32 372220804#33 372220804#34 372220804#35 -695544823 39368999#14 39368999#15 39368999#16 39368999#17 39368999#21 694715299#1 694715298 1280219265 1280219261 1282340737 1282340736 160628085#0 160628085#1 160628085#2 1280089222 1280089201#0 295408452#0 295408452#1 295408452#5 295408452#6 295408452#7"/>
    </vehicle>
    <vehicle id="mx_6" type="motorbike2" depart="9.48">
        <route edges="828724743 -828724743 -35950868#31 -35950868#30 -35950868#29 -35950868#28 -35950868#26 -35950868#25 -35950868#23 -35950868#22 -35950868#21 -35950868#20 -35950868#19 -35950868#18 -35950868#17 -35950868#16 -35950868#15 -35950868#14 -35950868#13 -35950868#12 -35950868#10 -35950868#9 372467078#0 372467078#1 372467078#2 372467078#3 408161670#13 408161670#16 408161670#17"/>
    </vehicle>
    <vehicle id="ma_12" type="motorbike" depart="9.60">
        <route edges="1280219266 1280219260#0 1280219260#1 118570175 1280219259#0 1280219259#1 295408468#0 295408468#4 295408468#5 295408468#6 1280219267 695496040 1280614505#0"/>
    </vehicle>
    <vehicle id="ma_13" type="motorbike" depart="10.40">
        <route edges="1279880663#1 694530227#0 694530227#1 694530227#2 694530227#5 694530227#7 694530227#8 694530227#10 694530227#12 1280219246 1279880664#0 1279880664#1 35950949#1 35950949#3 1471511793#0 1471511793#1 1471511793#2 1471511793#3 698936203#2 698936203#3 698936203#5 698936203#6 698936203#7 698936203#9 698936203#10 698936203#11 1279915895#0 1279915895#1 408161670#0 408161670#13 642067353 372464931#1 372464931#2 372464931#3 693885803#26 693885803#27 765351891#0 828678874#0"/>
    </vehicle>
    <vehicle id="mx_7" type="motorbike2" depart="11.06">
        <route edges="695496042#0 695496042#1 695496042#2 695496040 1280219250 1280219258#0 295408463#0 295408463#1 1280219260#0 1280219260#1 118570175 295408467 642086911 -35950864#30 -35950864#29 -35950864#27 -35950864#24 -35950864#23 -35950864#22 -35950864#21 -35950864#20 -35950864#18 -39368999#21 -39368999#20 -39368999#16 -39368999#15 -39368999#14"/>
    </vehicle>
    <vehicle id="ma_14" type="motorbike" depart="11.20">
        <route edges="-673151200#0 35950959#3 35950959#4 35950959#5 35950959#7 35950959#9 -118575974#4 -35950864#29 -35950864#27 -35950864#24 -35950864#23 -35950864#22 -35950864#21 118674615#0 118674615#2 295408462#8 295408462#10 321069052 694598419#1-AddedOnRampEdge"/>
    </vehicle>
    <vehicle id="ma_15" type="motorbike" depart="12.00">
        <route edges="-372467078#1 -372467078#0 -118570172#2 118570164#3 118570164#4 118570164#5 118570164#6 -118570168#6 -118570168#5 -118570168#4 -118570168#3 -118570168#2 -118570168#1 -118570168#0 372220804#22 372220804#23 -1387292390#4 -1387292390#3 -1387292390#1 -1387292390#0 -118570183#4 -118570183#3 -118570183#2 -118570183#1 -118570183#0 35950959#9 -118575974#4 35950864#30 -642086911 295408466#0 295408466#1 1280219259#1 1280219266 1280219260#0 1280219260#1 118570175 295408467"/>
    </vehicle>
    <vehicle id="ca_4" type="car" depart="12.00">
        <route edges="694775628#0 -118672299#3 -118672299#2 -118672299#1 -118672299#0 765351891#2 765351891#4 1279915898#0 1279915898#2 1279915898#5 1279915898#6 1279915898#9 302751295#0 302751295#1 302751295#2 302751295#3 302751295#4 302751295#5 302751295#6 302751295#7 302751295#8 302751295#9 302751295#10 302751295#11 302751295#12 302751295#13 302751295#15 35950864#0 35950864#3 35950864#6 35950864#8 35950864#14 35950864#17 35950864#18 35950864#19 35950864#21 35950864#22 35950864#23 35950864#24 35950864#25 35950864#28 35950864#30 -642086911 295408466#0 295408466#1 1280219259#1 295408468#0 295408468#4 295408468#5 295408468#6 695496039#0 695496039#1"/>
    </vehicle>
    <vehicle id="tk_1" type="truck" depart="12.00">
        <route edges="697200467#4-AddedOffRampEdge 302751299#0 -302751295#20 -302751295#18 -302751295#16 -302751295#14 -302751295#12 561474249#0 676467950 118672633#0 118672633#1 118672633#2 118672633#3 561426521 35950882#7 -894924691 -372467087#1 -560329307 -118555049#15 695646333 -695646333"/>
    </vehicle>
    <vehicle id="dv_1" type="delivery" depart="12.00">
        <route edges="561913438#3 561913438#4 561913438#5 -118673937#3 -118673937#2 39368999#17 39368999#21 694715299#1 694715298 1280219265 1280219261 1282340737 1282340736 160628085#0 160628085#1 160628085#2 1280089222 1280089201#0 295408452#0 295408452#1"/>
    </vehicle>
    <vehicle id="mx_8" type="motorbike2" depart="12.64">
        <route edges="-830713108#20 -830713108#18 -830713108#16 -830713108#13 -830713108#12 -830713108#10 -830713108#9 -1280089198#8 -1280089197#1 -1280089197#0 830713109#0 830713109#1 676491483#1 676491483#2 676491483#3 -830713116#14 -830713116#13 -830713116#12 -1279880662#2 -1279880662#1 -1279880687#2 -1279880687#1 -694512223#3 -694512223#2 404705781 642054366"/>
    </vehicle>
    <vehicle id="ma_16" type="motorbike" depart="12.80">
        <route edges="295408459#4 295408459#5 35950939 697200463#1 -302751295#25 295408452#10 295408452#11 295408452#16 295408452#16-AddedOffRampEdge 1034028675#0 1034028675#2 1034028675#6 1034027336#2 1034028676#0 1034028676#1"/>
    </vehicle>
    <vehicle id="ma_17" type="motorbike" depart="13.60">
        <route edges="676491483#1 676491483#2 676491483#3 830713112#0 830713112#1 694510925#0 694510925#1 -676491483#1 -830713109#1 -830713109#0 -408162779#4 -408162779#3 -408162779#2 -408162779#0 694768222#0 694768222#1 694768222#2 694768222#3 -694768223#7 -694768223#1 -372220805#4 372220804#0 372220804#2 372220804#3 372220804#4 372220804#5 372220804#6 372220804#14 372220804#16 372220804#17 372220804#18 372220804#19 372220804#20 372220804#21 372220804#22 372220804#23 -1387292390#4 -1387292390#3 -1387292390#1 -1387292390#0 -118570183#4 -118570183#3 -118570183#2 -118570183#1 -118570183#0 35950959#9 -118575974#4 35950864#30 -642086911 295408466#0 295408466#1 1280219259#1 1280219266 1280219260#0 1280219260#1 118570175 1280219259#0"/>
    </vehicle>
    <vehicle id="mx_9" type="motorbike2" depart="14.22">
        <route edges="295408452#9 -302751295#23 697200467#10 697200467#11 1280089201#2 -694715298 -694715297 -39368999#21 -39368999#20 -39368999#16 -39368999#15 -39368999#14 695544823 -372220804#35 -372220804#34 -372220804#33 -372220804#32 -372220804#31 -372220804#30 -372220804#29 -372220804#28 -372220804#23 -372220804#22 -372220804#21 -372220804#20 -372220804#19 -372220804#18 -372220804#17 -372220804#16 295449627#3 295449627#4"/>
    </vehicle>
    <vehicle id="ma_18" type="motorbike" depart="14.40">
        <route edges="695496039#1 695496039#2 695496039#3 695502614 695502613 695502611#0 695502611#1 695504114#0 695504114#1 695504114#4 295449627#0 295449627#2 295449627#3 295449627#4 295449627#5 698046188#1 1279915897 1282340739 118567494 1279915919 1279915896#0 -118688839#10 -118688839#9 -118688839#8 -118688839#7 -118688839#6 -343236557#1 -343236557#0"/>
    </vehicle>
    <vehicle id="ca_5" type="car" depart="15.00">
        <route edges="695295268 1280089201#0 1280089201#1 1280089201#2 1280219265 694601892 695295267#0 695295267#2 118674615#2 295408462#8 295408462#10 295408462#12"/>
    </vehicle>
    <vehicle id="sv_2" type="car_suv" depart="15.00">
        <route edges="-321069049#2 -321069049#0 321069035#1 641487801 295408470#1 295408470#2 673632547 160628085#2 1280089222 1280089201#0 295408452#0 295408452#1 295408452#5 295408452#6 295408452#7 295408452#8 295408452#9 295408452#10 295408452#11 295408452#16 295408452#16-AddedOffRampEdge 1034028675#0 1034028675#2 1279915900#0 -643237806#1 -643237806#0 -905050168 -643237807#0 643237807#0"/>
    </vehicle>
    <vehicle id="tx_2" type="taxi" depart="15.00">
        <route edges="694775628#0 -118672299#3 -118672299#2 -118672299#1 -118672299#0 765351891#2 765351891#4 1279915898#0 1279915898#2 1279915898#5 1279915898#6 1279915898#9 302751295#0 302751295#1 302751295#2 302751295#3 302751295#4 302751295#5 302751295#6 302751295#7 302751295#8 302751295#9 302751295#10 302751295#11 302751295#12 302751295#13 302751295#15 302751295#17 302751295#19 302751295#21 302751295#22 697200467#10 697200467#11 1280089201#2 1280219265 1280219261 1282340737 694598419#0 694598419#1-AddedOnRampEdge"/>
    </vehicle>
    <vehicle id="ma_19" type="motorbike" depart="15.20">
        <route edges="624451490#0 1282715048#0 673151204 35950847#1 35950850#0 35950850#12 118575970#0 -695446623#1 -695446623#0 695429325#1 39368999#1 39368999#2 39368999#3 39368999#4 39368999#6 39368999#9 39368999#10 39368999#11 39368999#13 39368999#14 39368999#15 39368999#16 118673937#0 118673937#3 118673937#4 -562701507#1 -562701507#0 -372466116#1 -372466116#0 1160396738 -372466117#3 -828724726#1 828724725#0 828724725#1 828724725#2 -372466122#0 -302751295#6 -302751295#5 -828724723 828724724#2 -828724724#2 828724723"/>
    </vehicle>
    <vehicle id="mx_10" type="motorbike2" depart="15.80">
        <route edges="964171425#2 964171425#3 -676458408 -118672444#1 -673151144#0 302739242#0 302739242#1 694775628#0 694775628#2 302751284#0 302751284#3 673151142#2 673151142#3 673151142#4 673151142#5 695025562#0 695025562#1 256668722 693885803#0 693885803#1"/>
    </vehicle>
    <vehicle id="ma_20" type="motorbike" depart="16.00">
        <route edges="295449627#5 698046188#1 1279915897 695510008#0 695510008#1 695510008#2 35950868#0 35950868#1 35950868#3 35950868#4 35950868#5 35950868#6 35950868#7 35950868#8 35950868#9 35950868#10 35950868#11 35950868#13 35950868#14 35950868#15 35950868#16 35950868#17 35950868#18 35950868#19 35950868#20 35950868#21 828678787#0 828678788#1"/>
    </vehicle>
    <vehicle id="ma_21" type="motorbike" depart="16.80">
        <route edges="694530227#1 694530227#2 694530227#5 694530227#7 694530227#8 694530227#10 694530227#12 1280219246 1279880664#0 1279880664#1 35950949#1 35950949#3 -408161669#16 -408161669#15 -408161669#13 -408161669#7 -408161669#6 -408161669#5 -408161669#4 -408161669#3 118674601#0 372220804#0 372220804#2 372220804#3 372220804#4 372220804#5 372220804#6 372220804#14 695446625#0 695446625#1 695446625#3 695490087#1 695490086#1 295449625#0 295449625#1 695026461#0 295408465#2-AddedOnRampEdge 295408465#2"/>
    </vehicle>
    <vehicle id="mx_11" type="motorbike2" depart="17.38">
        <route edges="160628085#2 1280089222 1280089201#0 1280089201#1 1280089201#2 -694715298 -694715297 -39368999#21 -39368999#20 -39368999#16 -39368999#15 -39368999#14 -39368999#13 -39368999#12 -39368999#10 -39368999#9 -39368999#8 -39368999#5 118566872#0 118566872#1 118566872#2 118566872#3 118566872#4 118566872#5 118566872#7 118566872#8 118566872#11 -118566873#2 -118566873#1 -118566873#0 -695446623#1 -695446623#0"/>
    </vehicle>
    <vehicle id="ma_22" type="motorbike" depart="17.60">
        <route edges="828678826#2 -118566872#4 -118566872#3 118575976#0 118575976#1 372220804#32 -118570159#16 -118570159#15 -118570159#14 -118570159#13 -118570159#11 -118570159#10 -118570159#9 -118570159#8 -118570159#7 -118570159#6 -118570159#5 -118570159#3 -118570159#2 35950868#17 35950868#18 35950868#19 35950868#20 35950868#21 35950868#22 35950868#23 35950868#24 35950868#26 35950868#27 35950868#29 35950868#30 35950868#31 35950868#32"/>
    </vehicle>
    <vehicle id="ca_6" type="car" depart="18.00">
        <route edges="-828724698 -828724699#1 -828724699#0 828724700#3 -562709015#1 -562709015#0 -372466115#1 118672612#0 118672612#1 118672612#2 118672612#3 118672612#4 302751295#11 302751295#12 302751295#13 302751295#15 302751295#17 302751295#19 302751295#21 302751295#22 302751295#23 295408452#10 295408452#11 295408452#16 295408452#16-AddedOffRampEdge"/>
    </vehicle>
    <vehicle id="ma_23" type="motorbike" depart="18.40">
        <route edges="-321069049#2 -321069049#0 321069035#1 641487801 295408470#1 295408470#2 673632547 160628085#2 1280089222 1280089201#0 1280089201#1 1280089201#2 1280219265 694601892 695295267#0 695295267#2 695295265#0 295408460#2 828724790#1 642086911 -35950864#30 118575974#1 -35950959#11 -35950959#8 -35950959#6 -35950959#4 -35950959#3 -35950959#2"/>
    </vehicle>
    <vehicle id="bs_2" type="bus" depart="18.46">
        <route edges="694830397 694830395#0 694830395#1 695025562#0 695025562#1 256668722 693885803#0 693885803#1 693885803#17 -372464931#3 -372464931#2 -372464931#1 -372464931#0 408161670#17 408161670#18 408161670#20 408161670#21 408161670#22 562701506#0 562701506#1 35950868#23 35950868#24 118672607#0 118672607#1 118672607#2 118672607#3 118672607#4 118672607#5 -828724762 -828724763#3 -828724775"/>
    </vehicle>
    <vehicle id="mx_12" type="motorbike2" depart="18.96">
        <route edges="-828678744 828678745#1 118575975#6 -295386152#0 695030266 695033474#1"/>
    </vehicle>
    <vehicle id="ma_24" type="motorbike" depart="19.20">
        <route edges="-408161669#15 -830713114#5 -830713114#2 -1282340753#1 1279880665#0 1279880665#1 694808615#0 694808615#1 694808615#3 717756677 693406008#0 703791944#0 703791944#1 703791944#3 1281158299#0 256668740#0"/>
    </vehicle>
    <vehicle id="ma_25" type="motorbike" depart="20.00">