<?xml version="1.0" encoding="UTF-8"?>

<!-- generated on 2026-03-21 14:11:46.339388 by Eclipse SUMO randomTrips.py v1_26_0+0000-fa7df22d7f1
<configuration>
    <net-file value="D:\WeSaveTime-ASEAN\sumo\danang\danang.net.xml"/>
    <additional-files value="D:\WeSaveTime-ASEAN\sumo\danang\danang.vtypes.xml"/>
    <weights-prefix value="D:\WeSaveTime-ASEAN\sumo\danang\danang.weights"/>
    <output-trip-file value="D:\WeSaveTime-ASEAN\sumo\danang\danang.ca_.trips.xml"/>
    <prefix value="ca_"/>
    <trip-attributes value="type=&quot;car&quot;"/>
    <fringe-factor value="5"/>
    <random value="True"/>
    <remove-loops value="True"/>
    <end value="600.0"/>
    <period value="3.0"/>
</configuration>
-->

<routes xmlns:xsi="http://www.w3.org/2001/XMLSchema-instance" xsi:noNamespaceSchemaLocation="http://sumo.dlr.de/xsd/routes_file.xsd">
    <trip id="ca_0" depart="0.00" from="641397122#1" to="408161670#27" type="car"/>
    <trip id="ca_1" depart="3.00" from="295449625#0" to="295408461#10" type="car"/>
    <trip id="ca_2" depart="6.00" from="1280219257#0" to="1280089201#1" type="car"/>
    <trip id="ca_3" depart="9.00" from="-35950864#24" to="408161670#13" type="car"/>
    <trip id="ca_4" depart="12.00" from="1282340737" to="779462187#1" type="car"/>
    <trip id="ca_5" depart="15.00" from="694830395#0" to="-676453140#2" type="car"/>
    <trip id="ca_6" depart="18.00" from="295408462#1" to="118570175" type="car"/>
    <trip id="ca_7" depart="21.00" from="696168834#0" to="-561913438#6" type="car"/>
    <trip id="ca_8" depart="24.00" from="694583900#0-AddedOffRampEdge" to="1280089201#0" type="car"/>
    <trip id="ca_9" depart="27.00" from="295449627#0" to="-698053103" type="car"/>
    <trip id="ca_10" depart="30.00" from="295408452#6" to="695504114#0" type="car"/>
    <trip id="ca_11" depart="33.00" from="693416427" to="698936203#5" type="car"/>
    <trip id="ca_12" depart="36.00" from="695496039#3" to="35950897#0" type="car"/>
    <trip id="ca_13" depart="39.00" from="295408452#16-AddedOffRampEdge" to="302751282-AddedOnRampEdge" type="car"/>
    <trip id="ca_14" depart="42.00" from="295408463#1" to="695040105#0" type="car"/>
    <trip id="ca_15" depart="45.00" from="964171425#4" to="-372220804#22" type="car"/>
    <trip id="ca_16" depart="48.00" from="693330103#0" to="779462187#1" type="car"/>
    <trip id="ca_17" depart="51.00" from="828678822#1" to="1282340735" type="car"/>
    <trip id="ca_18" depart="54.00" from="1034028676#0" to="1282340716" type="car"/>
    <trip id="ca_19" depart="57.00" from="964171425#4" to="-302751295#31" type="car"/>
    <trip id="ca_20" depart="60.00" from="828724746" to="1391330069#0" type="car"/>
    <trip id="ca_21" depart="63.00" from="295449625#0" to="35950868#14" type="car"/>
    <trip id="ca_22" depart="66.00" from="295408477" to="964171425#6" type="car"/>
    <trip id="ca_23" depart="69.00" from="1279915919" to="695025560#0" type="car"/>
    <trip id="ca_24" depart="72.00" from="295408452#0" to="694715299#1" type="car"/>
    <trip id="ca_25" depart="75.00" from="694598419#1-AddedOnRampEdge" to="408161670#18" type="car"/>
    <trip id="ca_26" depart="78.00" from="295408459#0" to="1418093030" type="car"/>
    <trip id="ca_27" depart="81.00" from="694583900#0-AddedOffRampEdge" to="35950925#2" type="car"/>
    <trip id="ca_28" depart="84.00" from="1034027336#2" to="-118673921#0" type="car"/>
    <trip id="ca_29" depart="87.00" from="910359052#7" to="910359052#3" type="car"/>
    <trip id="ca_30" depart="90.00" from="689583171#2" to="199383481-AddedOnRampEdge" type="car"/>
    <trip id="ca_31" depart="93.00" from="-118570167#0" to="-39368999#9" type="car"/>
    <trip id="ca_32" depart="96.00" from="694598419#0" to="643237807#0" type="car"/>
    <trip id="ca_33" depart="99.00" from="-302751295#18" to="695295265#0" type="car"/>
    <trip id="ca_34" depart="102.00" from="695295265#0" to="-828678798#1" type="car"/>
    <trip id="ca_35" depart="105.00" from="295128790#4" to="-828678789" type="car"/>
    <trip id="ca_36" depart="108.00" from="697200467#8" to="673151142#3" type="car"/>
    <trip id="ca_37" depart="111.00" from="910359052#5" to="295408468#0" type="car"/>
    <trip id="ca_38" depart="114.00" from="1034027336#1" to="693885803#27" type="car"/>
    <trip id="ca_39" depart="117.00" from="39368999#9" to="295408452#1" type="car"/>
    <trip id="ca_40" depart="120.00" from="694583900#0-AddedOffRampEdge" to="295408462#0" type="car"/>
    <trip id="ca_41" depart="123.00" from="295408462#10" to="118575970#0" type="car"/>
    <trip id="ca_42" depart="126.00" from="-39368999#12" to="295408466#1" type="car"/>
    <trip id="ca_43" depart="129.00" from="693330103#0" to="1165643358" type="car"/>
    <trip id="ca_44" depart="132.00" from="697200467#10" to="118672608#3" type="car"/>
    <trip id="ca_45" depart="135.00" from="295408462#1" to="1418093030" type="car"/>
    <trip id="ca_46" depart="138.00" from="295408452#6" to="964171425#4" type="car"/>
    <trip id="ca_47" depart="141.00" from="302751295#17" to="693416739#0" type="car"/>
    <trip id="ca_48" depart="144.00" from="35950925#7" to="1034028676#2" type="car"/>
    <trip id="ca_49" depart="147.00" from="295408452#1" to="828678872" type="car"/>
    <trip id="ca_50" depart="150.00" from="-831070293" to="1280089201#0" type="car"/>
    <trip id="ca_51" depart="153.00" from="641106173" to="295408452#5" type="car"/>
    <trip id="ca_52" depart="156.00" from="698936203#0" to="693416739#3" type="car"/>
    <trip id="ca_53" depart="159.00" from="695496039#3" to="295128790#4" type="car"/>
    <trip id="ca_54" depart="162.00" from="35950942#0" to="343236557#1" type="car"/>
    <trip id="ca_55" depart="165.00" from="693885802#2" to="695502613" type="car"/>
    <trip id="ca_56" depart="168.00" from="-118673892#1" to="1034028676#0" type="car"/>
    <trip id="ca_57" depart="171.00" from="-302751295#8" to="695295268" type="car"/>
    <trip id="ca_58" depart="174.00" from="695496039#3" to="828724749#0" type="car"/>
    <trip id="ca_59" depart="177.00" from="35950897#6" to="118688839#4" type="car"/>
    <trip id="ca_60" depart="180.00" from="-118673913#3" to="1034028675#2" type="car"/>
    <trip id="ca_61" depart="183.00" from="697200467#9" to="673151142#3" type="car"/>
    <trip id="ca_62" depart="186.00" from="694775628#0" to="695295265#0" type="car"/>
    <trip id="ca_63" depart="189.00" from="695295268" to="779462187#0" type="car"/>
    <trip id="ca_64" depart="192.00" from="-39354228#4" to="-828678816#1" type="car"/>
    <trip id="ca_65" depart="195.00" from="295408452#16-AddedOffRampEdge" to="-642098832#0" type="car"/>
    <trip id="ca_66" depart="198.00" from="-118674615#4" to="118555049#0" type="car"/>
    <trip id="ca_67" depart="201.00" from="694598419#0" to="1034028675#6" type="car"/>
    <trip id="ca_68" depart="204.00" from="694830396" to="779462187#0" type="car"/>
    <trip id="ca_69" depart="207.00" from="-118570169#2" to="372220804#32" type="car"/>
    <trip id="ca_70" depart="210.00" from="1280614485" to="-302751286#2" type="car"/>
    <trip id="ca_71" depart="213.00" from="-697869050#0" to="302751285#1" type="car"/>
    <trip id="ca_72" depart="216.00" from="295408459#1" to="697200467#11" type="car"/>
    <trip id="ca_73" depart="219.00" from="-405113896#0" to="-828724815" type="car"/>
    <trip id="ca_74" depart="222.00" from="295408459#0" to="1280089222" type="car"/>
    <trip id="ca_75" depart="225.00" from="1034027336#0" to="695040105#3" type="car"/>
    <trip id="ca_76" depart="228.00" from="-828678811#0" to="408161670#25" type="car"/>
    <trip id="ca_77" depart="231.00" from="828678866" to="695544822" type="car"/>
    <trip id="ca_78" depart="234.00" from="1280089222" to="35950897#15" type="car"/>
    <trip id="ca_79" depart="237.00" from="35950882#3" to="693885804#0" type="car"/>
    <trip id="ca_80" depart="240.00" from="-118570147#1" to="1280614485" type="car"/>
    <trip id="ca_81" depart="243.00" from="694600787" to="-828724794" type="car"/>
    <trip id="ca_82" depart="246.00" from="295408452#8" to="694600787" type="car"/>
    <trip id="ca_83" depart="249.00" from="694583900#0-AddedOffRampEdge" to="693416739#0" type="car"/>
    <trip id="ca_84" depart="252.00" from="295408464#0-AddedOffRampEdge" to="1279915921" type="car"/>
    <trip id="ca_85" depart="255.00" from="828678869#0" to="694598419#1-AddedOnRampEdge" type="car"/>
    <trip id="ca_86" depart="258.00" from="695025560#0" to="1034028676#1" type="car"/>
    <trip id="ca_87" depart="261.00" from="408161670#22" to="-828678817#1" type="car"/>
    <trip id="ca_88" depart="264.00" from="694583900#0-AddedOffRampEdge" to="1280614485" type="car"/>
    <trip id="ca_89" depart="267.00" from="-118688839#0" to="35950925#1" type="car"/>
    <trip id="ca_90" depart="270.00" from="696168834#1" to="695446625#1" type="car"/>
    <trip id="ca_91" depart="273.00" from="694583900#0-AddedOffRampEdge" to="694775628#2" type="car"/>
    <trip id="ca_92" depart="276.00" from="-828724769" to="39368999#13" type="car"/>
    <trip id="ca_93" depart="279.00" from="-1282340733#1" to="295408452#9" type="car"/>
    <trip id="ca_94" depart="282.00" from="-39368999#9" to="35950897#0" type="car"/>
    <trip id="ca_95" depart="285.00" from="408161670#18" to="-828678811#0" type="car"/>
    <trip id="ca_96" depart="288.00" from="695295267#2" to="895478110" type="car"/>
    <trip id="ca_97" depart="291.00" from="694583900#0" to="1280089201#1" type="car"/>
    <trip id="ca_98" depart="294.00" from="-695544823" to="-641082247" type="car"/>
    <trip id="ca_99" depart="297.00" from="35950925#3" to="-828678801#1" type="car"/>
    <trip id="ca_100" depart="300.00" from="372467090#1" to="828724821#0" type="car"/>
    <trip id="ca_101" depart="303.00" from="35950897#0" to="295394152#0" type="car"/>
    <trip id="ca_102" depart="306.00" from="39368999#17" to="695510007#0" type="car"/>
    <trip id="ca_103" depart="309.00" from="689583171#5" to="-695054805#0" type="car"/>
    <trip id="ca_104" depart="312.00" from="695490087#1" to="302751282-AddedOnRampEdge" type="car"/>
    <trip id="ca_105" depart="315.00" from="295408459#3" to="828724727" type="car"/>
    <trip id="ca_106" depart="318.00" from="697200467#0" to="118688839#2" type="car"/>
    <trip id="ca_107" depart="321.00" from="694830396" to="295408468#4" type="car"/>
    <trip id="ca_108" depart="324.00" from="-39368999#14" to="695040552#0" type="car"/>
    <trip id="ca_109" depart="327.00" from="302751284#0" to="35950883#9" type="car"/>
    <trip id="ca_110" depart="330.00" from="302751284#0" to="-828724697#1" type="car"/>
    <trip id="ca_111" depart="333.00" from="-1355319662" to="697200467#4" type="car"/>
    <trip id="ca_112" depart="336.00" from="1034028676#1" to="696692079" type="car"/>
    <trip id="ca_113" depart="339.00" from="695030266" to="35950942#2" type="car"/>
    <trip id="ca_114" depart="342.00" from="1280219259#1" to="118555049#0" type="car"/>
    <trip id="ca_115" depart="345.00" from="694775628#2" to="689583171#15" type="car"/>
    <trip id="ca_116" depart="348.00" from="1279915921" to="295408452#16-AddedOffRampEdge" type="car"/>
    <trip id="ca_117" depart="351.00" from="-118673947#1" to="295408462#0" type="car"/>
    <trip id="ca_118" depart="354.00" from="-676458410#0" to="295408468#0" type="car"/>
    <trip id="ca_119" depart="357.00" from="694600787" to="-828678872" type="car"/>
    <trip id="ca_120" depart="360.00" from="698936203#7" to="-300949142#0" type="car"/>
    <trip id="ca_121" depart="363.00" from="693885802#2" to="295408466#1" type="car"/>
    <trip id="ca_122" depart="366.00" from="-828724755#0" to="695496039#3" type="car"/>
    <trip id="ca_123" depart="369.00" from="408161670#18" to="1210918873#1" type="car"/>
    <trip id="ca_124" depart="372.00" from="694598419#1-AddedOnRampEdge" to="-563780767#0" type="car"/>
    <trip id="ca_125" depart="375.00" from="118575976#0" to="1280089222" type="car"/>
    <trip id="ca_126" depart="378.00" from="-118575968#5" to="408161672#0" type="car"/>
    <trip id="ca_127" depart="381.00" from="698046188#1" to="1418093030" type="car"/>
    <trip id="ca_128" depart="384.00" from="-35950864#30" to="1034028675#6" type="car"/>
    <trip id="ca_129" depart="387.00" from="693885804#0" to="-676438752#4" type="car"/>
    <trip id="ca_130" depart="390.00" from="1280219265" to="698936203#7" type="car"/>
    <trip id="ca_131" depart="393.00" from="295408477" to="779462187#1" type="car"/>
    <trip id="ca_132" depart="396.00" from="295408464#0-AddedOffRampEdge" to="1282340735" type="car"/>
    <trip id="ca_133" depart="399.00" from="295408462#12" to="-39368999#5" type="car"/>
    <trip id="ca_134" depart="402.00" from="-372466117#2" to="1280219260#0" type="car"/>
    <trip id="ca_135" depart="405.00" from="295408460#2" to="35950882#7" type="car"/>
    <trip id="ca_136" depart="408.00" from="295408459#5" to="693885804#0" type="car"/>
    <trip id="ca_137" depart="411.00" from="-118673913#3" to="295408452#0" type="car"/>
    <trip id="ca_138" depart="414.00" from="295408462#10" to="695490086#1" type="car"/>
    <trip id="ca_139" depart="417.00" from="695490086#1" to="-118575965" type="car"/>
    <trip id="ca_140" depart="420.00" from="697200467#9" to="-828678807" type="car"/>
    <trip id="ca_141" depart="423.00" from="695295265#0" to="295408468#0" type="car"/>
    <trip id="ca_142" depart="426.00" from="698046188#1" to="1280614505#1" type="car"/>
    <trip id="ca_143" depart="429.00" from="694775628#0" to="-39368999#20" type="car"/>
    <trip id="ca_144" depart="432.00" from="-641074760#1" to="405962815#0" type="car"/>
    <trip id="ca_145" depart="435.00" from="910359052#3" to="694598419#1" type="car"/>
    <trip id="ca_146" depart="438.00" from="1346339141#0" to="695030266" type="car"/>
    <trip id="ca_147" depart="441.00" from="697869050#0" to="964171425#0" type="car"/>
    <trip id="ca_148" depart="444.00" from="295408452#16-AddedOffRampEdge" to="118567884" type="car"/>
    <trip id="ca_149" depart="447.00" from="295449625#0" to="828678906" type="car"/>
    <trip id="ca_150" depart="450.00" from="695510007#0" to="295408463#1" type="car"/>
    <trip id="ca_151" depart="453.00" from="694594970#0" to="1160397532" type="car"/>
    <trip id="ca_152" depart="456.00" from="697200467#11" to="676453141" type="car"/>
    <trip id="ca_153" depart="459.00" from="689583171#7" to="-696692079" type="car"/>
    <trip id="ca_154" depart="462.00" from="695496039#3" to="695295267#0" type="car"/>
    <trip id="ca_155" depart="465.00" from="695295267#0" to="910359052#3" type="car"/>
    <trip id="ca_156" depart="468.00" from="39368999#13" to="408161670#22" type="car"/>
    <trip id="ca_157" depart="471.00" from="673151142#3" to="295408460#2" type="car"/>
    <trip id="ca_158" depart="474.00" from="-39368999#1" to="696168834#0" type="car"/>
    <trip id="ca_159" depart="477.00" from="964171425#0" to="828678746" type="car"/>
    <trip id="ca_160" depart="480.00" from="295408459#3" to="-642050078#1" type="car"/>
    <trip id="ca_161" depart="483.00" from="673151145#0" to="697200467#10" type="car"/>
    <trip id="ca_162" depart="486.00" from="689583171#5" to="295394152#0" type="car"/>
    <trip id="ca_163" depart="489.00" from="-1279915900#1" to="-302751295#11" type="car"/>
    <trip id="ca_164" depart="492.00" from="1282340772" to="697200467#11" type="car"/>
    <trip id="ca_165" depart="495.00" from="-828724757#0" to="-405962815#1" type="car"/>
    <trip id="ca_166" depart="498.00" from="-35950868#7" to="408161670#27" type="car"/>
    <trip id="ca_167" depart="501.00" from="-35950868#15" to="118672607#3" type="car"/>
    <trip id="ca_168" depart="504.00" from="1279915896#1" to="695025560#0" type="car"/>
    <trip id="ca_169" depart="507.00" from="696169688" to="697200467#10" type="car"/>
    <trip id="ca_170" depart="510.00" from="-35950864#27" to="695030266" type="car"/>
    <trip id="ca_171" depart="513.00" from="39368999#1" to="779462187#1" type="car"/>
    <trip id="ca_172" depart="516.00" from="295408460#2" to="642086911" type="car"/>
    <trip id="ca_173" depart="519.00" from="689583171#0" to="695504114#4" type="car"/>
    <trip id="ca_174" depart="522.00" from="118570151#2" to="295408452#0" type="car"/>
    <trip id="ca_175" depart="525.00" from="295408461#4" to="295408461#0" type="car"/>
    <trip id="ca_176" depart="528.00" from="1034028675#6" to="408161670#20" type="car"/>
    <trip id="ca_177" depart="531.00" from="1280614504#0" to="676453138#1" type="car"/>
    <trip id="ca_178" depart="534.00" from="560329293#1" to="1034028676#0" type="car"/>
    <trip id="ca_179" depart="537.00" from="35950897#15" to="693885804#0" type="car"/>
    <trip id="ca_180" depart="540.00" from="302739240#4" to="39368999#13" type="car"/>
    <trip id="ca_181" depart="543.00" from="295408452#16-AddedOffRampEdge" to="-828678860#0" type="car"/>
    <trip id="ca_182" depart="546.00" from="295408463#1" to="695040105#0" type="car"/>
    <trip id="ca_183" depart="549.00" from="695040105#3" to="408161672#0" type="car"/>
    <trip id="ca_184" depart="552.00" from="-828724713" to="694775628#2" type="car"/>
    <trip id="ca_185" depart="555.00" from="696168834#1" to="35950864#30" type="car"/>
    <trip id="ca_186" depart="558.00" from="695025560#0" to="-118555049#14" type="car"/>
    <trip id="ca_187" depart="561.00" from="910359052#9" to="295408477" type="car"/>
    <trip id="ca_188" depart="564.00" from="295408462#12" to="295408452#16" type="car"/>
    <trip id="ca_189" depart="567.00" from="295408452#9" to="695295265#0" type="car"/>
    <trip id="ca_190" depart="570.00" from="295128790#0" to="-828678860#4" type="car"/>
    <trip id="ca_191" depart="573.00" from="1279915919" to="295408462#1" type="car"/>
    <trip id="ca_192" depart="576.00" from="372464936" to="1282340735" type="car"/>
    <trip id="ca_193" depart="579.00" from="695496039#3" to="696168834#0" type="car"/>
    <trip id="ca_194" depart="582.00" from="-372220804#30" to="1280089201#1" type="car"/>
    <trip id="ca_195" depart="585.00" from="695295267#0" to="1280219259#1" type="car"/>
    <trip id="ca_196" depart="588.00" from="295408459#1" to="693885802#0" type="car"/>
    <trip id="ca_197" depart="591.00" from="118567494" to="35950925#6" type="car"/>
    <trip id="ca_198" depart="594.00" from="696755556#0" to="343236557#1" type="car"/>
    <trip id="ca_199" depart="597.00" from="344692547#0" to="-118570159#13" type="car"/>
</routes>
