<?xml version="1.0" encoding="UTF-8"?>

<!-- generated on 2026-03-20 21:20:20.067086 by Eclipse SUMO randomTrips.py v1_26_0+0000-fa7df22d7f1
<configuration>
    <net-file value="D:\WeSaveTime-ASEAN\sumo\danang\danang.net.xml"/>
    <additional-files value="D:\WeSaveTime-ASEAN\sumo\danang\danang.vtypes.xml"/>
    <weights-prefix value="D:\WeSaveTime-ASEAN\sumo\danang\danang.weights"/>
    <output-trip-file value="D:\WeSaveTime-ASEAN\sumo\danang\danang.tx_.trips.xml"/>
    <prefix value="tx_"/>
    <trip-attributes value="type=&quot;taxi&quot;"/>
    <fringe-factor value="5"/>
    <random value="True"/>
    <remove-loops value="True"/>
    <end value="600.0"/>
    <period value="7.5"/>
</configuration>
-->

<routes xmlns:xsi="http://www.w3.org/2001/XMLSchema-instance" xsi:noNamespaceSchemaLocation="http://sumo.dlr.de/xsd/routes_file.xsd">
    <trip id="tx_0" depart="0.00" from="560329291#2" to="295128790#0" type="taxi"/>
    <trip id="tx_1" depart="7.50" from="1282340772" to="295408460#2" type="taxi"/>
    <trip id="tx_2" depart="15.00" from="1280219260#0" to="372220804#2" type="taxi"/>
    <trip id="tx_3" depart="22.50" from="302751295#25" to="-321069035#6" type="taxi"/>
    <trip id="tx_4" depart="30.00" from="35950882#3" to="295128790#0" type="taxi"/>
    <trip id="tx_5" depart="37.50" from="697200467#4" to="35950897#0" type="taxi"/>
    <trip id="tx_6" depart="45.00" from="964171425#5" to="828724810#0" type="taxi"/>
    <trip id="tx_7" depart="52.50" from="1280219260#1" to="1034028675#2" type="taxi"/>
    <trip id="tx_8" depart="60.00" from="-828678802#0" to="910359052#9" type="taxi"/>
    <trip id="tx_9" depart="67.50" from="828678903" to="673151142#4" type="taxi"/>
    <trip id="tx_10" depart="75.00" from="408161670#20" to="696168834#1" type="taxi"/>
    <trip id="tx_11" depart="82.50" from="694598419#1-AddedOnRampEdge" to="199383481-AddedOnRampEdge" type="taxi"/>
    <trip id="tx_12" depart="90.00" from="295408452#16-AddedOffRampEdge" to="1034027336#2" type="taxi"/>
    <trip id="tx_13" depart="97.50" from="910359052#0" to="295408477" type="taxi"/>
    <trip id="tx_14" depart="105.00" from="-302751295#5" to="1034028675#2" type="taxi"/>
    <trip id="tx_15" depart="112.50" from="408161670#25" to="663749305" type="taxi"/>
    <trip id="tx_16" depart="120.00" from="1280219265" to="1280219261" type="taxi"/>
    <trip id="tx_17" depart="127.50" from="295408460#3" to="689583171#7" type="taxi"/>
    <trip id="tx_18" depart="135.00" from="694830397" to="1280089201#1" type="taxi"/>
    <trip id="tx_19" depart="142.50" from="408161670#22" to="695446623#1" type="taxi"/>
    <trip id="tx_20" depart="150.00" from="1280219261" to="-39368999#1" type="taxi"/>
    <trip id="tx_21" depart="157.50" from="35950864#22" to="695040105#0" type="taxi"/>
    <trip id="tx_22" depart="165.00" from="694774375#0" to="35950925#7" type="taxi"/>
    <trip id="tx_23" depart="172.50" from="694601892" to="779462187#1" type="taxi"/>
    <trip id="tx_24" depart="180.00" from="1282340717#1" to="35950897#0" type="taxi"/>
    <trip id="tx_25" depart="187.50" from="118570159#15" to="408161672#0" type="taxi"/>
    <trip id="tx_26" depart="195.00" from="1280614504#0" to="118570164#0" type="taxi"/>
    <trip id="tx_27" depart="202.50" from="302739240#0" to="693416739#0" type="taxi"/>
    <trip id="tx_28" depart="210.00" from="39368999#11" to="302751282" type="taxi"/>
    <trip id="tx_29" depart="217.50" from="-828724821#0" to="372220804#29" type="taxi"/>
    <trip id="tx_30" depart="225.00" from="831070296" to="1280219257#0" type="taxi"/>
    <trip id="tx_31" depart="232.50" from="-642360965#0" to="-35950868#14" type="taxi"/>
    <trip id="tx_32" depart="240.00" from="295408452#16-AddedOffRampEdge" to="118570175" type="taxi"/>
    <trip id="tx_33" depart="247.50" from="828678864" to="1034027336#1" type="taxi"/>
    <trip id="tx_34" depart="255.00" from="695510007#1" to="-118673885" type="taxi"/>
    <trip id="tx_35" depart="262.50" from="39368999#3" to="295408461#1" type="taxi"/>
    <trip id="tx_36" depart="270.00" from="295408459#3" to="-118570147#1" type="taxi"/>
    <trip id="tx_37" depart="277.50" from="695295267#0" to="-118566872#3" type="taxi"/>
    <trip id="tx_38" depart="285.00" from="695496039#3" to="697200467#8" type="taxi"/>
    <trip id="tx_39" depart="292.50" from="295408452#16-AddedOffRampEdge" to="300949142#1" type="taxi"/>
    <trip id="tx_40" depart="300.00" from="405412828#0" to="695504114#4" type="taxi"/>
    <trip id="tx_41" depart="307.50" from="1282340735" to="-828724821#0" type="taxi"/>
    <trip id="tx_42" depart="315.00" from="1034028675#6" to="695040105#5" type="taxi"/>
    <trip id="tx_43" depart="322.50" from="-689583176#4" to="693416739#0" type="taxi"/>
    <trip id="tx_44" depart="330.00" from="-35950864#27" to="-828678805" type="taxi"/>
    <trip id="tx_45" depart="337.50" from="1391330070#0" to="160628085#1" type="taxi"/>
    <trip id="tx_46" depart="345.00" from="343237264#0" to="694775628#2" type="taxi"/>
    <trip id="tx_47" depart="352.50" from="693885803#27" to="-695040102#1" type="taxi"/>
    <trip id="tx_48" depart="360.00" from="-118555049#17" to="694775628#0" type="taxi"/>
    <trip id="tx_49" depart="367.50" from="295408460#3" to="302751282-AddedOnRampEdge" type="taxi"/>
    <trip id="tx_50" depart="375.00" from="295408460#2" to="676455250#0" type="taxi"/>
    <trip id="tx_51" depart="382.50" from="828724759" to="779462187#1" type="taxi"/>
    <trip id="tx_52" depart="390.00" from="1280089201#2" to="695040105#0" type="taxi"/>
    <trip id="tx_53" depart="397.50" from="828678814#0" to="698936203#8" type="taxi"/>
    <trip id="tx_54" depart="405.00" from="695446623#1" to="910359052#3" type="taxi"/>
    <trip id="tx_55" depart="412.50" from="695040105#3" to="696755556#0" type="taxi"/>
    <trip id="tx_56" depart="420.00" from="295408452#0" to="295408461#7" type="taxi"/>
    <trip id="tx_57" depart="427.50" from="694583900#0" to="695295267#2" type="taxi"/>
    <trip id="tx_58" depart="435.00" from="-828724769" to="-828678829" type="taxi"/>
    <trip id="tx_59" depart="442.50" from="118570164#6" to="295408461#9" type="taxi"/>
    <trip id="tx_60" depart="450.00" from="694830395#0" to="1279915897" type="taxi"/>
    <trip id="tx_61" depart="457.50" from="695504114#0" to="695490086#1" type="taxi"/>
    <trip id="tx_62" depart="465.00" from="321069050#0" to="695026460#0" type="taxi"/>
    <trip id="tx_63" depart="472.50" from="1034028675#0" to="199383481-AddedOnRampEdge" type="taxi"/>
    <trip id="tx_64" depart="480.00" from="-39368999#10" to="1034028675#6" type="taxi"/>
    <trip id="tx_65" depart="487.50" from="1280219257#0" to="695496039#2" type="taxi"/>
    <trip id="tx_66" depart="495.00" from="696686428" to="199383481-AddedOnRampEdge" type="taxi"/>
    <trip id="tx_67" depart="502.50" from="-372464931#4" to="828724790#1" type="taxi"/>
    <trip id="tx_68" depart="510.00" from="695496039#3" to="1280219265" type="taxi"/>
    <trip id="tx_69" depart="517.50" from="295386152#11" to="35950897#13" type="taxi"/>
    <trip id="tx_70" depart="525.00" from="-895430059" to="295408452#9" type="taxi"/>
    <trip id="tx_71" depart="532.50" from="-372466114#0" to="695040105#0" type="taxi"/>
    <trip id="tx_72" depart="540.00" from="408161670#22" to="39368999#10" type="taxi"/>
    <trip id="tx_73" depart="547.50" from="295408463#0" to="295408461#4" type="taxi"/>
    <trip id="tx_74" depart="555.00" from="695502611#0" to="-828724799#1" type="taxi"/>
    <trip id="tx_75" depart="562.50" from="-118570164#1" to="295408452#1" type="taxi"/>
    <trip id="tx_76" depart="570.00" from="35950925#2" to="695496042#0" type="taxi"/>
    <trip id="tx_77" depart="577.50" from="-118672612#4" to="693885802#2" type="taxi"/>
    <trip id="tx_78" depart="585.00" from="300947936" to="910359052#0" type="taxi"/>
    <trip id="tx_79" depart="592.50" from="698936202#1" to="-39368999#10" type="taxi"/>
</routes>
