<?xml version="1.0" encoding="UTF-8"?>

<!-- generated on 2026-03-16 23:18:22.493271 by Eclipse SUMO randomTrips.py v1.26.0
<configuration>
    <net-file value="F:\Newgeneration\FlowMindAI\sumo\danang\danang.net.xml"/>
    <additional-files value="F:\Newgeneration\FlowMindAI\sumo\danang\danang.vtypes.xml"/>
    <weights-prefix value="F:\Newgeneration\FlowMindAI\sumo\danang\danang.weights"/>
    <output-trip-file value="F:\Newgeneration\FlowMindAI\sumo\danang\danang.dv_.trips.xml"/>
    <prefix value="dv_"/>
    <trip-attributes value="type=&quot;delivery&quot;"/>
    <fringe-factor value="3"/>
    <random value="True"/>
    <remove-loops value="True"/>
    <period value="12.0"/>
</configuration>
-->

<routes xmlns:xsi="http://www.w3.org/2001/XMLSchema-instance" xsi:noNamespaceSchemaLocation="http://sumo.dlr.de/xsd/routes_file.xsd">
    <trip id="dv_0" depart="0.00" from="695025560#0" to="697200467#11" type="delivery"/>
    <trip id="dv_1" depart="12.00" from="295408461#4" to="295449625#1" type="delivery"/>
    <trip id="dv_2" depart="24.00" from="673151142#3" to="-828724721" type="delivery"/>
    <trip id="dv_3" depart="36.00" from="295408461#4" to="697200467#8" type="delivery"/>
    <trip id="dv_4" depart="48.00" from="694601892" to="828678874#1" type="delivery"/>
    <trip id="dv_5" depart="60.00" from="295408468#4" to="779462187#1" type="delivery"/>
    <trip id="dv_6" depart="72.00" from="295128790#0" to="673151147#0" type="delivery"/>
    <trip id="dv_7" depart="84.00" from="295408468#0" to="302751282-AddedOnRampEdge" type="delivery"/>
    <trip id="dv_8" depart="96.00" from="-118673892#1" to="828724753" type="delivery"/>
    <trip id="dv_9" depart="108.00" from="560329293#0" to="910359052#3" type="delivery"/>
    <trip id="dv_10" depart="120.00" from="695502613" to="779462187#1" type="delivery"/>
    <trip id="dv_11" depart="132.00" from="-35950868#5" to="695295267#0" type="delivery"/>
    <trip id="dv_12" depart="144.00" from="695504114#4" to="697200467#10" type="delivery"/>
    <trip id="dv_13" depart="156.00" from="-302751295#21" to="295408461#9" type="delivery"/>
    <trip id="dv_14" depart="168.00" from="689583176#0" to="-39368999#15" type="delivery"/>
    <trip id="dv_15" depart="180.00" from="295449625#0" to="694601892" type="delivery"/>
    <trip id="dv_16" depart="192.00" from="694583900#0-AddedOffRampEdge" to="-828724694#2" type="delivery"/>
    <trip id="dv_17" depart="204.00" from="1280219258#0" to="696168834#0" type="delivery"/>
    <trip id="dv_18" depart="216.00" from="-828724758#1" to="693885804#0" type="delivery"/>
    <trip id="dv_19" depart="228.00" from="408161670#13" to="-39368999#2" type="delivery"/>
    <trip id="dv_20" depart="240.00" from="828678908" to="35950897#13" type="delivery"/>
    <trip id="dv_21" depart="252.00" from="302751284#0" to="35950897#0" type="delivery"/>
    <trip id="dv_22" depart="264.00" from="-295386152#11" to="408161670#24" type="delivery"/>
    <trip id="dv_23" depart="276.00" from="408161670#24" to="302751282-AddedOnRampEdge" type="delivery"/>
    <trip id="dv_24" depart="288.00" from="693885802#2" to="408161672#1" type="delivery"/>
    <trip id="dv_25" depart="300.00" from="-828678775" to="295408461#1" type="delivery"/>
    <trip id="dv_26" depart="312.00" from="1280614485" to="1165643358" type="delivery"/>
    <trip id="dv_27" depart="324.00" from="-118555049#0" to="828678749#1" type="delivery"/>
    <trip id="dv_28" depart="336.00" from="1280219259#0" to="-828724768#4" type="delivery"/>
    <trip id="dv_29" depart="348.00" from="35950897#0" to="1034027336#2" type="delivery"/>
    <trip id="dv_30" depart="360.00" from="697200467#10" to="295128790#4" type="delivery"/>
    <trip id="dv_31" depart="372.00" from="694583900#0" to="693885804#0" type="delivery"/>
    <trip id="dv_32" depart="384.00" from="694601892" to="-676461674" type="delivery"/>
    <trip id="dv_33" depart="396.00" from="35950897#15" to="1282340736" type="delivery"/>
    <trip id="dv_34" depart="408.00" from="697200467#9" to="295449627#4" type="delivery"/>
    <trip id="dv_35" depart="420.00" from="1282340736" to="1391330070#9" type="delivery"/>
    <trip id="dv_36" depart="432.00" from="697200467#8" to="697200467#9" type="delivery"/>
    <trip id="dv_37" depart="444.00" from="828724748" to="35950897#10" type="delivery"/>
    <trip id="dv_38" depart="456.00" from="295408452#16-AddedOffRampEdge" to="779462187#0" type="delivery"/>
    <trip id="dv_39" depart="468.00" from="695040552#0" to="828724780" type="delivery"/>
    <trip id="dv_40" depart="480.00" from="964171425#5" to="295449627#0" type="delivery"/>
    <trip id="dv_41" depart="492.00" from="694600787" to="1280219258#0" type="delivery"/>
    <trip id="dv_42" depart="504.00" from="1034028675#0" to="560329291#1" type="delivery"/>
    <trip id="dv_43" depart="516.00" from="321069057" to="118566872#13" type="delivery"/>
    <trip id="dv_44" depart="528.00" from="-694738596" to="-676453142#0" type="delivery"/>
    <trip id="dv_45" depart="540.00" from="694583900#0" to="1391330070#4" type="delivery"/>
    <trip id="dv_46" depart="552.00" from="693416739#0" to="697200467#11" type="delivery"/>
    <trip id="dv_47" depart="564.00" from="118673921#0" to="694594970#0" type="delivery"/>
    <trip id="dv_48" depart="576.00" from="695025562#0" to="295408465#1" type="delivery"/>
    <trip id="dv_49" depart="588.00" from="295408459#1" to="302751282" type="delivery"/>
    <trip id="dv_50" depart="600.00" from="-35950883#8" to="1034028676#2" type="delivery"/>
    <trip id="dv_51" depart="612.00" from="695496039#3" to="408161672#0" type="delivery"/>
    <trip id="dv_52" depart="624.00" from="-689583178#6" to="910359052#7" type="delivery"/>
    <trip id="dv_53" depart="636.00" from="1034028675#6" to="695295267#2" type="delivery"/>
    <trip id="dv_54" depart="648.00" from="694583900#0" to="1280219260#1" type="delivery"/>
    <trip id="dv_55" depart="660.00" from="689583171#5" to="295408461#7" type="delivery"/>
    <trip id="dv_56" depart="672.00" from="295408468#4" to="39368999#4" type="delivery"/>
    <trip id="dv_57" depart="684.00" from="693885802#2" to="704621733#1" type="delivery"/>
    <trip id="dv_58" depart="696.00" from="295408464#0-AddedOffRampEdge" to="695504114#1" type="delivery"/>
    <trip id="dv_59" depart="708.00" from="295408452#6" to="695446625#3" type="delivery"/>
    <trip id="dv_60" depart="720.00" from="-39368999#3" to="693885804#0" type="delivery"/>
    <trip id="dv_61" depart="732.00" from="697200467#1" to="39368999#3" type="delivery"/>
    <trip id="dv_62" depart="744.00" from="694830397" to="697200467#10" type="delivery"/>
    <trip id="dv_63" depart="756.00" from="1280614485" to="302751284#0" type="delivery"/>
    <trip id="dv_64" depart="768.00" from="693885803#26" to="295408462#12" type="delivery"/>
    <trip id="dv_65" depart="780.00" from="1280614485" to="698936203#8" type="delivery"/>
    <trip id="dv_66" depart="792.00" from="828724754#3" to="1418093030" type="delivery"/>
    <trip id="dv_67" depart="804.00" from="-676458408" to="35950897#6" type="delivery"/>
    <trip id="dv_68" depart="816.00" from="695510007#1" to="895478110" type="delivery"/>
    <trip id="dv_69" depart="828.00" from="694583900#0" to="695496039#2" type="delivery"/>
    <trip id="dv_70" depart="840.00" from="295408462#8" to="-39368999#5" type="delivery"/>
    <trip id="dv_71" depart="852.00" from="-39368999#10" to="1034028676#2" type="delivery"/>
    <trip id="dv_72" depart="864.00" from="695502611#1" to="779462187#1" type="delivery"/>
    <trip id="dv_73" depart="876.00" from="-695090346#1" to="828678819" type="delivery"/>
    <trip id="dv_74" depart="888.00" from="408161670#25" to="695504114#0" type="delivery"/>
    <trip id="dv_75" depart="900.00" from="295408477" to="1034028676#2" type="delivery"/>
    <trip id="dv_76" depart="912.00" from="1280219259#0" to="-118570149#2" type="delivery"/>
    <trip id="dv_77" depart="924.00" from="-372220804#12" to="561667994#0" type="delivery"/>
    <trip id="dv_78" depart="936.00" from="295408459#0" to="695496039#3" type="delivery"/>
    <trip id="dv_79" depart="948.00" from="695025562#0" to="295408452#16" type="delivery"/>
    <trip id="dv_80" depart="960.00" from="694830397" to="-39368999#20" type="delivery"/>
    <trip id="dv_81" depart="972.00" from="118672464#3" to="1280219260#1" type="delivery"/>
    <trip id="dv_82" depart="984.00" from="295408460#3" to="295449627#0" type="delivery"/>
    <trip id="dv_83" depart="996.00" from="295408460#2" to="-295386152#8" type="delivery"/>
    <trip id="dv_84" depart="1008.00" from="695510007#1" to="-300949144#1" type="delivery"/>
    <trip id="dv_85" depart="1020.00" from="1280089201#2" to="295408463#0" type="delivery"/>
    <trip id="dv_86" depart="1032.00" from="1280614504#0" to="694775628#2" type="delivery"/>
    <trip id="dv_87" depart="1044.00" from="408161670#13" to="39368999#6" type="delivery"/>
    <trip id="dv_88" depart="1056.00" from="-344692547#2" to="1210918873#1" type="delivery"/>
    <trip id="dv_89" depart="1068.00" from="295408463#1" to="828678817#4" type="delivery"/>
    <trip id="dv_90" depart="1080.00" from="295408459#3" to="199383481" type="delivery"/>
    <trip id="dv_91" depart="1092.00" from="160628085#2" to="910359052#5" type="delivery"/>
    <trip id="dv_92" depart="1104.00" from="118673944#8" to="1279915919" type="delivery"/>
    <trip id="dv_93" depart="1116.00" from="35950925#1" to="160628085#1" type="delivery"/>
    <trip id="dv_94" depart="1128.00" from="295408464#0-AddedOffRampEdge" to="693885803#17" type="delivery"/>
    <trip id="dv_95" depart="1140.00" from="1279915921" to="295408461#4" type="delivery"/>
    <trip id="dv_96" depart="1152.00" from="295408460#3" to="-35950868#19" type="delivery"/>
    <trip id="dv_97" depart="1164.00" from="694830396" to="695040552#1" type="delivery"/>
    <trip id="dv_98" depart="1176.00" from="1280219259#0" to="295408460#3" type="delivery"/>
    <trip id="dv_99" depart="1188.00" from="295408452#16-AddedOffRampEdge" to="-118672606#1" type="delivery"/>
    <trip id="dv_100" depart="1200.00" from="964171425#4" to="694600787" type="delivery"/>
    <trip id="dv_101" depart="1212.00" from="697200467#4" to="118570163#1" type="delivery"/>
    <trip id="dv_102" depart="1224.00" from="694598419#0" to="118672606#1" type="delivery"/>
    <trip id="dv_103" depart="1236.00" from="694775628#0" to="910359052#7" type="delivery"/>
    <trip id="dv_104" depart="1248.00" from="1034028677#0" to="779462187#1" type="delivery"/>
    <trip id="dv_105" depart="1260.00" from="910359052#9" to="1282340736" type="delivery"/>
    <trip id="dv_106" depart="1272.00" from="-405113892#2" to="295408462#10" type="delivery"/>
    <trip id="dv_107" depart="1284.00" from="1280219261" to="302751282" type="delivery"/>
    <trip id="dv_108" depart="1296.00" from="-828678746" to="828678820" type="delivery"/>
    <trip id="dv_109" depart="1308.00" from="-676467950" to="372467078#3" type="delivery"/>
    <trip id="dv_110" depart="1320.00" from="408161670#18" to="1034028678" type="delivery"/>
    <trip id="dv_111" depart="1332.00" from="1280219258#0" to="828678740" type="delivery"/>
    <trip id="dv_112" depart="1344.00" from="1280614485" to="295408459#5" type="delivery"/>
    <trip id="dv_113" depart="1356.00" from="694775628#0" to="779462187#0" type="delivery"/>
    <trip id="dv_114" depart="1368.00" from="-561667993" to="693416739#0" type="delivery"/>
    <trip id="dv_115" depart="1380.00" from="1280219260#0" to="1280089201#1" type="delivery"/>
    <trip id="dv_116" depart="1392.00" from="-118570168#3" to="641397122#0" type="delivery"/>
    <trip id="dv_117" depart="1404.00" from="695025560#0" to="1282340739" type="delivery"/>
    <trip id="dv_118" depart="1416.00" from="828678806" to="39368999#17" type="delivery"/>
    <trip id="dv_119" depart="1428.00" from="1034028676#1" to="295408462#12" type="delivery"/>
    <trip id="dv_120" depart="1440.00" from="1279915896#0" to="828678788#1" type="delivery"/>
    <trip id="dv_121" depart="1452.00" from="694600787" to="295408461#10" type="delivery"/>
    <trip id="dv_122" depart="1464.00" from="-118575975#0" to="-118673921#0" type="delivery"/>
    <trip id="dv_123" depart="1476.00" from="295408461#1" to="-828678814#2" type="delivery"/>
    <trip id="dv_124" depart="1488.00" from="118570168#9" to="693885804#0" type="delivery"/>
    <trip id="dv_125" depart="1500.00" from="1280219266" to="35950864#21" type="delivery"/>
    <trip id="dv_126" depart="1512.00" from="-673151145#1" to="35950897#13" type="delivery"/>
    <trip id="dv_127" depart="1524.00" from="694583900#0" to="695502614" type="delivery"/>
    <trip id="dv_128" depart="1536.00" from="35950868#26" to="1282340736" type="delivery"/>
    <trip id="dv_129" depart="1548.00" from="300947936" to="118672612#0" type="delivery"/>
    <trip id="dv_130" depart="1560.00" from="828678745#1" to="695504114#1" type="delivery"/>
    <trip id="dv_131" depart="1572.00" from="295408464#0" to="-118570181#2" type="delivery"/>
    <trip id="dv_132" depart="1584.00" from="295408459#4" to="-39368999#14" type="delivery"/>
    <trip id="dv_133" depart="1596.00" from="1282340737" to="-35950942#1" type="delivery"/>
    <trip id="dv_134" depart="1608.00" from="562709015#4" to="1034027336#1" type="delivery"/>
    <trip id="dv_135" depart="1620.00" from="-302751295#32" to="39368999#17" type="delivery"/>
    <trip id="dv_136" depart="1632.00" from="-828724780" to="695504114#1" type="delivery"/>
    <trip id="dv_137" depart="1644.00" from="673151142#4" to="693885804#0" type="delivery"/>
    <trip id="dv_138" depart="1656.00" from="695496039#2" to="1280219259#1" type="delivery"/>
    <trip id="dv_139" depart="1668.00" from="1391330070#4" to="697200467#0" type="delivery"/>
    <trip id="dv_140" depart="1680.00" from="698936203#4" to="693885802#0" type="delivery"/>
    <trip id="dv_141" depart="1692.00" from="1391330070#12" to="-828678787#1" type="delivery"/>
    <trip id="dv_142" depart="1704.00" from="1392384120#0" to="35950897#6" type="delivery"/>
    <trip id="dv_143" depart="1716.00" from="-828724752#0" to="-35950864#23" type="delivery"/>
    <trip id="dv_144" depart="1728.00" from="698936203#1" to="-828724765" type="delivery"/>
    <trip id="dv_145" depart="1740.00" from="828724703" to="694775628#2" type="delivery"/>
    <trip id="dv_146" depart="1752.00" from="694830396" to="1210918873#1" type="delivery"/>
    <trip id="dv_147" depart="1764.00" from="694715298" to="828678904" type="delivery"/>
    <trip id="dv_148" depart="1776.00" from="-828724768#4" to="-828678792" type="delivery"/>
    <trip id="dv_149" depart="1788.00" from="295408468#4" to="302751282-AddedOnRampEdge" type="delivery"/>
    <trip id="dv_150" depart="1800.00" from="-676439266" to="695502613" type="delivery"/>
    <trip id="dv_151" depart="1812.00" from="964171425#6" to="295408477" type="delivery"/>
    <trip id="dv_152" depart="1824.00" from="964171425#6" to="910359052#7" type="delivery"/>
    <trip id="dv_153" depart="1836.00" from="295408459#0" to="779462187#0" type="delivery"/>
    <trip id="dv_154" depart="1848.00" from="-1279259377#1" to="-828678866" type="delivery"/>
    <trip id="dv_155" depart="1860.00" from="1282340731" to="695510007#0" type="delivery"/>
    <trip id="dv_156" depart="1872.00" from="295408461#1" to="-828678834" type="delivery"/>
    <trip id="dv_157" depart="1884.00" from="964171425#4" to="295408461#4" type="delivery"/>
    <trip id="dv_158" depart="1896.00" from="695295265#0" to="828678779#0" type="delivery"/>
    <trip id="dv_159" depart="1908.00" from="-1346339141#0" to="1282340752" type="delivery"/>
    <trip id="dv_160" depart="1920.00" from="118672634" to="694600787" type="delivery"/>
    <trip id="dv_161" depart="1932.00" from="408161670#24" to="-673151200#0" type="delivery"/>
    <trip id="dv_162" depart="1944.00" from="1282340736" to="-39354228#3" type="delivery"/>
    <trip id="dv_163" depart="1956.00" from="302751295#5" to="828678773#2" type="delivery"/>
    <trip id="dv_164" depart="1968.00" from="828678814#0" to="-828724714#0" type="delivery"/>
    <trip id="dv_165" depart="1980.00" from="295128790#0" to="-302751295#3" type="delivery"/>
    <trip id="dv_166" depart="1992.00" from="641397118" to="695502613" type="delivery"/>
    <trip id="dv_167" depart="2004.00" from="641109023#0" to="-35950864#5" type="delivery"/>
    <trip id="dv_168" depart="2016.00" from="-828678808" to="295408452#1" type="delivery"/>
    <trip id="dv_169" depart="2028.00" from="35950868#15" to="695025562#0" type="delivery"/>
    <trip id="dv_170" depart="2040.00" from="295408452#8" to="295408452#8" type="delivery"/>
    <trip id="dv_171" depart="2052.00" from="295408462#8" to="1280219265" type="delivery"/>
    <trip id="dv_172" depart="2064.00" from="295408452#7" to="295408459#5" type="delivery"/>
    <trip id="dv_173" depart="2076.00" from="828724768#3" to="408161670#13" type="delivery"/>
    <trip id="dv_174" depart="2088.00" from="698936202#1" to="1391330070#9" type="delivery"/>
    <trip id="dv_175" depart="2100.00" from="693885804#0" to="118566872#11" type="delivery"/>
    <trip id="dv_176" depart="2112.00" from="-118555049#7" to="39368999#13" type="delivery"/>
    <trip id="dv_177" depart="2124.00" from="-831070297#1" to="39368999#13" type="delivery"/>
    <trip id="dv_178" depart="2136.00" from="295408468#4" to="697200467#1" type="delivery"/>
    <trip id="dv_179" depart="2148.00" from="118672299#2" to="641487801" type="delivery"/>
    <trip id="dv_180" depart="2160.00" from="642396065" to="695496039#3" type="delivery"/>
    <trip id="dv_181" depart="2172.00" from="828724747#2" to="694775628#0" type="delivery"/>
    <trip id="dv_182" depart="2184.00" from="695090346#4" to="295408452#7" type="delivery"/>
    <trip id="dv_183" depart="2196.00" from="694583900#0" to="693885802#0" type="delivery"/>
    <trip id="dv_184" depart="2208.00" from="408161670#22" to="1279915897" type="delivery"/>
    <trip id="dv_185" depart="2220.00" from="694583900#0-AddedOffRampEdge" to="295408462#8" type="delivery"/>
    <trip id="dv_186" depart="2232.00" from="321069043#0" to="695496039#2" type="delivery"/>
    <trip id="dv_187" depart="2244.00" from="695502611#0" to="694594970#0" type="delivery"/>
    <trip id="dv_188" depart="2256.00" from="408161670#25" to="1280089201#1" type="delivery"/>
    <trip id="dv_189" depart="2268.00" from="302751295#25" to="693885804#0" type="delivery"/>
    <trip id="dv_190" depart="2280.00" from="302751295#17" to="295408463#1" type="delivery"/>
    <trip id="dv_191" depart="2292.00" from="-39368999#5" to="-118688839#3" type="delivery"/>
    <trip id="dv_192" depart="2304.00" from="408161670#22" to="694598419#1-AddedOnRampEdge" type="delivery"/>
    <trip id="dv_193" depart="2316.00" from="694830397" to="302751295#5" type="delivery"/>
    <trip id="dv_194" depart="2328.00" from="344692547#1" to="828678750#0" type="delivery"/>
    <trip id="dv_195" depart="2340.00" from="694598419#1" to="1210918873#1" type="delivery"/>
    <trip id="dv_196" depart="2352.00" from="-118673913#6" to="295449627#4" type="delivery"/>
    <trip id="dv_197" depart="2364.00" from="405113894" to="1279915921" type="delivery"/>
    <trip id="dv_198" depart="2376.00" from="1034028676#0" to="697200467#11" type="delivery"/>
    <trip id="dv_199" depart="2388.00" from="693416739#3" to="295408452#0" type="delivery"/>
    <trip id="dv_200" depart="2400.00" from="695504114#4" to="695510007#1" type="delivery"/>
    <trip id="dv_201" depart="2412.00" from="695025562#0" to="35950864#3" type="delivery"/>
    <trip id="dv_202" depart="2424.00" from="295408459#0" to="695025562#0" type="delivery"/>
    <trip id="dv_203" depart="2436.00" from="698936203#5" to="-118672607#1" type="delivery"/>
    <trip id="dv_204" depart="2448.00" from="561667994#1" to="693416739#0" type="delivery"/>
    <trip id="dv_205" depart="2460.00" from="694774375#0" to="295394152#1" type="delivery"/>
    <trip id="dv_206" depart="2472.00" from="695040105#3" to="696168834#1" type="delivery"/>
    <trip id="dv_207" depart="2484.00" from="-642356081#1" to="-828678791" type="delivery"/>
    <trip id="dv_208" depart="2496.00" from="-118567892" to="695496039#2" type="delivery"/>
    <trip id="dv_209" depart="2508.00" from="694775628#0" to="673151142#4" type="delivery"/>
    <trip id="dv_210" depart="2520.00" from="695040105#5" to="295128790#4" type="delivery"/>
    <trip id="dv_211" depart="2532.00" from="-828678815" to="964171425#5" type="delivery"/>
    <trip id="dv_212" depart="2544.00" from="696168834#1" to="694598419#1-AddedOnRampEdge" type="delivery"/>
    <trip id="dv_213" depart="2556.00" from="698046190" to="695496042#0" type="delivery"/>
    <trip id="dv_214" depart="2568.00" from="-560329314" to="295408465#2" type="delivery"/>
    <trip id="dv_215" depart="2580.00" from="-676465939#3" to="199383481-AddedOnRampEdge" type="delivery"/>
    <trip id="dv_216" depart="2592.00" from="295408459#3" to="199383481-AddedOnRampEdge" type="delivery"/>
    <trip id="dv_217" depart="2604.00" from="-828724767#0" to="343417844#0" type="delivery"/>
    <trip id="dv_218" depart="2616.00" from="343417844#0" to="118570151#1" type="delivery"/>
    <trip id="dv_219" depart="2628.00" from="1280219260#1" to="828678860#0" type="delivery"/>
    <trip id="dv_220" depart="2640.00" from="118570159#4" to="1280219260#0" type="delivery"/>
    <trip id="dv_221" depart="2652.00" from="118575975#3" to="39354228#5" type="delivery"/>
    <trip id="dv_222" depart="2664.00" from="39368999#10" to="1279915921" type="delivery"/>
    <trip id="dv_223" depart="2676.00" from="694594970#0" to="199383481-AddedOnRampEdge" type="delivery"/>
    <trip id="dv_224" depart="2688.00" from="-35950882#9" to="-39368999#5" type="delivery"/>
    <trip id="dv_225" depart="2700.00" from="-895477503" to="1034028676#0" type="delivery"/>
    <trip id="dv_226" depart="2712.00" from="-118570167#1" to="408161670#13" type="delivery"/>
    <trip id="dv_227" depart="2724.00" from="295408461#0" to="698046188#1" type="delivery"/>
    <trip id="dv_228" depart="2736.00" from="697200467#0" to="689583171#11" type="delivery"/>
    <trip id="dv_229" depart="2748.00" from="-118570151#0" to="695446623#1" type="delivery"/>
    <trip id="dv_230" depart="2760.00" from="295408452#7" to="779462187#0" type="delivery"/>
    <trip id="dv_231" depart="2772.00" from="695502613" to="694775628#2" type="delivery"/>
    <trip id="dv_232" depart="2784.00" from="964171425#0" to="693885803#26" type="delivery"/>
    <trip id="dv_233" depart="2796.00" from="295408459#7" to="295408468#0" type="delivery"/>
    <trip id="dv_234" depart="2808.00" from="-696755556#0" to="295408452#9" type="delivery"/>
    <trip id="dv_235" depart="2820.00" from="694598419#1-AddedOnRampEdge" to="-643237807#1" type="delivery"/>
    <trip id="dv_236" depart="2832.00" from="408161670#27" to="694775628#2" type="delivery"/>
    <trip id="dv_237" depart="2844.00" from="295408462#12" to="696169688" type="delivery"/>
    <trip id="dv_238" depart="2856.00" from="1282340772" to="695040105#3" type="delivery"/>
    <trip id="dv_239" depart="2868.00" from="35950868#10" to="1076293830#1" type="delivery"/>
    <trip id="dv_240" depart="2880.00" from="118575970#0" to="-696755556#0" type="delivery"/>
    <trip id="dv_241" depart="2892.00" from="295449627#5" to="1280219266" type="delivery"/>
    <trip id="dv_242" depart="2904.00" from="1280219259#1" to="302751295#5" type="delivery"/>
    <trip id="dv_243" depart="2916.00" from="295408452#16-AddedOffRampEdge" to="1418093030" type="delivery"/>
    <trip id="dv_244" depart="2928.00" from="-694715298" to="35950925#0" type="delivery"/>
    <trip id="dv_245" depart="2940.00" from="39368999#14" to="693416739#3" type="delivery"/>
    <trip id="dv_246" depart="2952.00" from="302751286#2" to="295408460#3" type="delivery"/>
    <trip id="dv_247" depart="2964.00" from="-118570174#1" to="295408460#3" type="delivery"/>
    <trip id="dv_248" depart="2976.00" from="964171425#0" to="295449625#1" type="delivery"/>
    <trip id="dv_249" depart="2988.00" from="964171425#4" to="1280614485" type="delivery"/>
    <trip id="dv_250" depart="3000.00" from="118566872#7" to="828678912#3" type="delivery"/>
    <trip id="dv_251" depart="3012.00" from="-828724791" to="-35950864#23" type="delivery"/>
    <trip id="dv_252" depart="3024.00" from="695504114#4" to="35950850#0" type="delivery"/>
    <trip id="dv_253" depart="3036.00" from="1282340719" to="295408452#6" type="delivery"/>
    <trip id="dv_254" depart="3048.00" from="-39368999#10" to="35950897#6" type="delivery"/>
    <trip id="dv_255" depart="3060.00" from="697200467#4" to="695446625#1" type="delivery"/>
    <trip id="dv_256" depart="3072.00" from="-118555049#9" to="697200467#1" type="delivery"/>
    <trip id="dv_257" depart="3084.00" from="302751295#32" to="302751284#0" type="delivery"/>
    <trip id="dv_258" depart="3096.00" from="697870570" to="697200467#4" type="delivery"/>
    <trip id="dv_259" depart="3108.00" from="295128790#4" to="160628085#2" type="delivery"/>
    <trip id="dv_260" depart="3120.00" from="-561474249#1" to="-39368999#13" type="delivery"/>
    <trip id="dv_261" depart="3132.00" from="-1279259377#1" to="-35950864#21" type="delivery"/>
    <trip id="dv_262" depart="3144.00" from="697200467#1" to="118672606#7" type="delivery"/>
    <trip id="dv_263" depart="3156.00" from="1279915896#0" to="910359052#3" type="delivery"/>
    <trip id="dv_264" depart="3168.00" from="695295265#0" to="693885804#0" type="delivery"/>
    <trip id="dv_265" depart="3180.00" from="562701504" to="295408465#2-AddedOnRampEdge" type="delivery"/>
    <trip id="dv_266" depart="3192.00" from="118570175" to="694600787" type="delivery"/>
    <trip id="dv_267" depart="3204.00" from="295128790#0" to="1034028676#1" type="delivery"/>
    <trip id="dv_268" depart="3216.00" from="295408462#10" to="199383481-AddedOnRampEdge" type="delivery"/>
    <trip id="dv_269" depart="3228.00" from="-673151179#1" to="1280219260#0" type="delivery"/>
    <trip id="dv_270" depart="3240.00" from="408161670#20" to="-39368999#14" type="delivery"/>
    <trip id="dv_271" depart="3252.00" from="302751284#3" to="-39368999#20" type="delivery"/>
    <trip id="dv_272" depart="3264.00" from="-828724763#4" to="693885804#0" type="delivery"/>
    <trip id="dv_273" depart="3276.00" from="302739240#4" to="295408461#10" type="delivery"/>
    <trip id="dv_274" depart="3288.00" from="694830396" to="295408452#1" type="delivery"/>
    <trip id="dv_275" depart="3300.00" from="1034027336#2" to="1280089201#1" type="delivery"/>
    <trip id="dv_276" depart="3312.00" from="697200467#9" to="828724694#2" type="delivery"/>
    <trip id="dv_277" depart="3324.00" from="-39368999#5" to="295394152#0" type="delivery"/>
    <trip id="dv_278" depart="3336.00" from="295408460#3" to="35950897#0" type="delivery"/>
    <trip id="dv_279" depart="3348.00" from="-118575973#0" to="1279915919" type="delivery"/>
    <trip id="dv_280" depart="3360.00" from="35950868#8" to="779462187#1" type="delivery"/>
    <trip id="dv_281" depart="3372.00" from="-372467087#1" to="689583171#7" type="delivery"/>
    <trip id="dv_282" depart="3384.00" from="694830397" to="199383481-AddedOnRampEdge" type="delivery"/>
    <trip id="dv_283" depart="3396.00" from="-118567889" to="295408459#7" type="delivery"/>
    <trip id="dv_284" depart="3408.00" from="910359052#0" to="698936203#7" type="delivery"/>
    <trip id="dv_285" depart="3420.00" from="1282340735" to="35950868#8" type="delivery"/>
    <trip id="dv_286" depart="3432.00" from="560329293#0" to="35950868#34" type="delivery"/>
    <trip id="dv_287" depart="3444.00" from="695295267#2" to="964171425#0" type="delivery"/>
    <trip id="dv_288" depart="3456.00" from="-118570181#9" to="295408452#7" type="delivery"/>
    <trip id="dv_289" depart="3468.00" from="694774375#0" to="695504114#4" type="delivery"/>
    <trip id="dv_290" depart="3480.00" from="697200467#9" to="-372589137#0" type="delivery"/>
    <trip id="dv_291" depart="3492.00" from="-373009311#2" to="295408452#0" type="delivery"/>
    <trip id="dv_292" depart="3504.00" from="408161670#24" to="372220804#5" type="delivery"/>
    <trip id="dv_293" depart="3516.00" from="118575975#4" to="-35950868#28" type="delivery"/>
    <trip id="dv_294" depart="3528.00" from="295128790#4" to="295386152#2" type="delivery"/>
    <trip id="dv_295" depart="3540.00" from="295128790#0" to="695504114#1" type="delivery"/>
    <trip id="dv_296" depart="3552.00" from="1280089222" to="295408459#7" type="delivery"/>
    <trip id="dv_297" depart="3564.00" from="295408464#0-AddedOffRampEdge" to="-372220804#18" type="delivery"/>
    <trip id="dv_298" depart="3576.00" from="-562701506#1" to="302751282" type="delivery"/>
    <trip id="dv_299" depart="3588.00" from="295408452#16" to="295408465#2-AddedOnRampEdge" type="delivery"/>
</routes>
