<?xml version="1.0" encoding="UTF-8"?>

<!-- generated on 2026-03-16 23:17:52.738651 by Eclipse SUMO randomTrips.py v1.26.0
<configuration>
    <net-file value="F:\Newgeneration\FlowMindAI\sumo\danang\danang.net.xml"/>
    <additional-files value="F:\Newgeneration\FlowMindAI\sumo\danang\danang.vtypes.xml"/>
    <weights-prefix value="F:\Newgeneration\FlowMindAI\sumo\danang\danang.weights"/>
    <output-trip-file value="F:\Newgeneration\FlowMindAI\sumo\danang\danang.tx_.trips.xml"/>
    <prefix value="tx_"/>
    <trip-attributes value="type=&quot;taxi&quot;"/>
    <fringe-factor value="3"/>
    <random value="True"/>
    <remove-loops value="True"/>
    <period value="7.2"/>
</configuration>
-->

<routes xmlns:xsi="http://www.w3.org/2001/XMLSchema-instance" xsi:noNamespaceSchemaLocation="http://sumo.dlr.de/xsd/routes_file.xsd">
    <trip id="tx_0" depart="0.00" from="695502614" to="560329307" type="taxi"/>
    <trip id="tx_1" depart="7.20" from="-673151198#1" to="-35950868#35" type="taxi"/>
    <trip id="tx_2" depart="14.40" from="697200467#10" to="295408461#1" type="taxi"/>
    <trip id="tx_3" depart="21.60" from="-1279915898#9" to="1034027336#1" type="taxi"/>
    <trip id="tx_4" depart="28.80" from="1279915897" to="695040105#5" type="taxi"/>
    <trip id="tx_5" depart="36.00" from="695030266" to="695295267#0" type="taxi"/>
    <trip id="tx_6" depart="43.20" from="1280089201#1" to="1210918873#1" type="taxi"/>
    <trip id="tx_7" depart="50.40" from="295408452#7" to="693885804#0" type="taxi"/>
    <trip id="tx_8" depart="57.60" from="372464931#2" to="694715298" type="taxi"/>
    <trip id="tx_9" depart="64.80" from="118673947#0" to="-828678784" type="taxi"/>
    <trip id="tx_10" depart="72.00" from="35950864#14" to="35950897#10" type="taxi"/>
    <trip id="tx_11" depart="79.20" from="1034028677#0" to="676458407" type="taxi"/>
    <trip id="tx_12" depart="86.40" from="295408452#16-AddedOffRampEdge" to="695502613" type="taxi"/>
    <trip id="tx_13" depart="93.60" from="694583900#0" to="561667994#1" type="taxi"/>
    <trip id="tx_14" depart="100.80" from="-828724778" to="302739240#3" type="taxi"/>
    <trip id="tx_15" depart="108.00" from="295408452#9" to="118570183#0" type="taxi"/>
    <trip id="tx_16" depart="115.20" from="35950925#6" to="295408452#0" type="taxi"/>
    <trip id="tx_17" depart="122.40" from="408161670#18" to="408161672#0" type="taxi"/>
    <trip id="tx_18" depart="129.60" from="118570175" to="828724767#0" type="taxi"/>
    <trip id="tx_19" depart="136.80" from="-828724780" to="697200467#8" type="taxi"/>
    <trip id="tx_20" depart="144.00" from="1034028676#1" to="689583178#3" type="taxi"/>
    <trip id="tx_21" depart="151.20" from="35950897#10" to="1282340718" type="taxi"/>
    <trip id="tx_22" depart="158.40" from="372220804#23" to="1280219257#0" type="taxi"/>
    <trip id="tx_23" depart="165.60" from="408161670#27" to="118570175" type="taxi"/>
    <trip id="tx_24" depart="172.80" from="-704621733#2" to="-895475668" type="taxi"/>
    <trip id="tx_25" depart="180.00" from="1280089201#2" to="295408452#0" type="taxi"/>
    <trip id="tx_26" depart="187.20" from="910359052#3" to="295408465#2" type="taxi"/>
    <trip id="tx_27" depart="194.40" from="697200467#0" to="1280219257#0" type="taxi"/>
    <trip id="tx_28" depart="201.60" from="118555049#17" to="35950897#10" type="taxi"/>
    <trip id="tx_29" depart="208.80" from="295408460#2" to="39354228#5" type="taxi"/>
    <trip id="tx_30" depart="216.00" from="828678818" to="-118566873#0" type="taxi"/>
    <trip id="tx_31" depart="223.20" from="693416427" to="696168834#0" type="taxi"/>
    <trip id="tx_32" depart="230.40" from="1034028675#2" to="695496039#3" type="taxi"/>
    <trip id="tx_33" depart="237.60" from="-405962811#2" to="199383481" type="taxi"/>
    <trip id="tx_34" depart="244.80" from="1280219260#0" to="1391330070#9" type="taxi"/>
    <trip id="tx_35" depart="252.00" from="910359052#0" to="408161670#25" type="taxi"/>
    <trip id="tx_36" depart="259.20" from="828678775" to="199383481-AddedOnRampEdge" type="taxi"/>
    <trip id="tx_37" depart="266.40" from="295408462#10" to="-828724815" type="taxi"/>
    <trip id="tx_38" depart="273.60" from="295408462#8" to="302751282-AddedOnRampEdge" type="taxi"/>
    <trip id="tx_39" depart="280.80" from="-676465938#1" to="694774375#0" type="taxi"/>
    <trip id="tx_40" depart="288.00" from="695295267#2" to="1280219260#0" type="taxi"/>
    <trip id="tx_41" depart="295.20" from="695510007#1" to="828678769#0" type="taxi"/>
    <trip id="tx_42" depart="302.40" from="35950868#26" to="118570160" type="taxi"/>
    <trip id="tx_43" depart="309.60" from="118555049#2" to="-295449629#0" type="taxi"/>
    <trip id="tx_44" depart="316.80" from="-895430059" to="-39368999#14" type="taxi"/>
    <trip id="tx_45" depart="324.00" from="693111346#0" to="964171425#0" type="taxi"/>
    <trip id="tx_46" depart="331.20" from="405962813" to="697200467#4" type="taxi"/>
    <trip id="tx_47" depart="338.40" from="697200467#4" to="118573603#0" type="taxi"/>
    <trip id="tx_48" depart="345.60" from="295449625#0" to="295408452#0" type="taxi"/>
    <trip id="tx_49" depart="352.80" from="828678821#1" to="1355319662" type="taxi"/>
    <trip id="tx_50" depart="360.00" from="828678803#1" to="695490087#1" type="taxi"/>
    <trip id="tx_51" depart="367.20" from="1280089201#0" to="39368999#2" type="taxi"/>
    <trip id="tx_52" depart="374.40" from="828724709" to="295408468#4" type="taxi"/>
    <trip id="tx_53" depart="381.60" from="1034028676#1" to="-676450957" type="taxi"/>
    <trip id="tx_54" depart="388.80" from="694830396" to="372220804#29" type="taxi"/>
    <trip id="tx_55" depart="396.00" from="694598419#0" to="696169688" type="taxi"/>
    <trip id="tx_56" depart="403.20" from="695040105#3" to="295408461#5" type="taxi"/>
    <trip id="tx_57" depart="410.40" from="1280219265" to="1391330070#0" type="taxi"/>
    <trip id="tx_58" depart="417.60" from="-560329291#1" to="35950925#9" type="taxi"/>
    <trip id="tx_59" depart="424.80" from="910359052#7" to="-39368999#10" type="taxi"/>
    <trip id="tx_60" depart="432.00" from="694830397" to="1418093030" type="taxi"/>
    <trip id="tx_61" depart="439.20" from="295408452#10" to="295408460#3" type="taxi"/>
    <trip id="tx_62" depart="446.40" from="-828678811#1" to="673151142#3" type="taxi"/>
    <trip id="tx_63" depart="453.60" from="695496042#0" to="35950887" type="taxi"/>
    <trip id="tx_64" depart="460.80" from="693885802#0" to="1034028676#0" type="taxi"/>
    <trip id="tx_65" depart="468.00" from="302739239#1" to="1280089201#2" type="taxi"/>
    <trip id="tx_66" depart="475.20" from="295128790#0" to="1210918873#1" type="taxi"/>
    <trip id="tx_67" depart="482.40" from="1392384120#0" to="694600787" type="taxi"/>
    <trip id="tx_68" depart="489.60" from="295449625#0" to="295449625#1" type="taxi"/>
    <trip id="tx_69" depart="496.80" from="118567892" to="697200467#1" type="taxi"/>
    <trip id="tx_70" depart="504.00" from="694830396" to="199383481" type="taxi"/>
    <trip id="tx_71" depart="511.20" from="693416739#0" to="641092773" type="taxi"/>
    <trip id="tx_72" depart="518.40" from="693330103#0" to="693416427" type="taxi"/>
    <trip id="tx_73" depart="525.60" from="697200467#9" to="118570159#16" type="taxi"/>
    <trip id="tx_74" depart="532.80" from="-372464935#0" to="1034028677#0" type="taxi"/>
    <trip id="tx_75" depart="540.00" from="1279915921" to="408161672#0" type="taxi"/>
    <trip id="tx_76" depart="547.20" from="695502611#1" to="-35950868#0" type="taxi"/>
    <trip id="tx_77" depart="554.40" from="1280219257#0" to="199383481-AddedOnRampEdge" type="taxi"/>
    <trip id="tx_78" depart="561.60" from="828724764#0" to="-641487801" type="taxi"/>
    <trip id="tx_79" depart="568.80" from="-118672464#2" to="1391330070#9" type="taxi"/>
    <trip id="tx_80" depart="576.00" from="295408452#16-AddedOffRampEdge" to="964171425#6" type="taxi"/>
    <trip id="tx_81" depart="583.20" from="910359052#9" to="-302739239#1" type="taxi"/>
    <trip id="tx_82" depart="590.40" from="693416739#0" to="295394152#0" type="taxi"/>
    <trip id="tx_83" depart="597.60" from="35950897#15" to="302751284#3" type="taxi"/>
    <trip id="tx_84" depart="604.80" from="641077473#0" to="39368999#2" type="taxi"/>
    <trip id="tx_85" depart="612.00" from="1280219265" to="295408468#0" type="taxi"/>
    <trip id="tx_86" depart="619.20" from="118570168#3" to="302751282-AddedOnRampEdge" type="taxi"/>
    <trip id="tx_87" depart="626.40" from="693416739#0" to="696168834#1" type="taxi"/>
    <trip id="tx_88" depart="633.60" from="698046188#1" to="828724749#0" type="taxi"/>
    <trip id="tx_89" depart="640.80" from="1280089201#2" to="1280089222" type="taxi"/>
    <trip id="tx_90" depart="648.00" from="295408452#16-AddedOffRampEdge" to="408161670#27" type="taxi"/>
    <trip id="tx_91" depart="655.20" from="624455966" to="118673944#6" type="taxi"/>
    <trip id="tx_92" depart="662.40" from="693416427" to="910359052#3" type="taxi"/>
    <trip id="tx_93" depart="669.60" from="695295267#0" to="673151142#4" type="taxi"/>
    <trip id="tx_94" depart="676.80" from="964171425#6" to="-828724797#1" type="taxi"/>
    <trip id="tx_95" depart="684.00" from="695496039#3" to="-676458407" type="taxi"/>
    <trip id="tx_96" depart="691.20" from="295408459#5" to="-642098832#0" type="taxi"/>
    <trip id="tx_97" depart="698.40" from="1034028676#1" to="695040552#0" type="taxi"/>
    <trip id="tx_98" depart="705.60" from="1210918872#1" to="295408462#1" type="taxi"/>
    <trip id="tx_99" depart="712.80" from="-828678741#0" to="697200467#0" type="taxi"/>
    <trip id="tx_100" depart="720.00" from="1034028675#0" to="643237807#0" type="taxi"/>
    <trip id="tx_101" depart="727.20" from="-695446623#1" to="695496039#2" type="taxi"/>
    <trip id="tx_102" depart="734.40" from="696168834#1" to="1280614505#1" type="taxi"/>
    <trip id="tx_103" depart="741.60" from="118570164#0" to="1280089201#2" type="taxi"/>
    <trip id="tx_104" depart="748.80" from="693885802#2" to="561474249#0" type="taxi"/>
    <trip id="tx_105" depart="756.00" from="-828678810#0" to="695025560#0" type="taxi"/>
    <trip id="tx_106" depart="763.20" from="910359052#7" to="39368999#11" type="taxi"/>
    <trip id="tx_107" depart="770.40" from="39354228#4" to="295408452#16" type="taxi"/>
    <trip id="tx_108" depart="777.60" from="1280219260#0" to="302751295#19" type="taxi"/>
    <trip id="tx_109" depart="784.80" from="694583900#0-AddedOffRampEdge" to="118575976#1" type="taxi"/>
    <trip id="tx_110" depart="792.00" from="35950897#13" to="676453139#0" type="taxi"/>
    <trip id="tx_111" depart="799.20" from="295408464#0-AddedOffRampEdge" to="910359052#8" type="taxi"/>
    <trip id="tx_112" depart="806.40" from="295408452#16-AddedOffRampEdge" to="295408452#5" type="taxi"/>
    <trip id="tx_113" depart="813.60" from="964171425#6" to="693885803#17" type="taxi"/>
    <trip id="tx_114" depart="820.80" from="35950897#15" to="-372466118" type="taxi"/>
    <trip id="tx_115" depart="828.00" from="-834094454" to="695295268" type="taxi"/>
    <trip id="tx_116" depart="835.20" from="35950868#16" to="693885804#0" type="taxi"/>
    <trip id="tx_117" depart="842.40" from="35950868#34" to="693885804#0" type="taxi"/>
    <trip id="tx_118" depart="849.60" from="295408462#12" to="295408452#7" type="taxi"/>
    <trip id="tx_119" depart="856.80" from="695502614" to="-343236557#0" type="taxi"/>
    <trip id="tx_120" depart="864.00" from="-118688839#0" to="295408468#0" type="taxi"/>
    <trip id="tx_121" depart="871.20" from="695510007#0" to="302751282-AddedOnRampEdge" type="taxi"/>
    <trip id="tx_122" depart="878.40" from="408161670#25" to="302751284#3" type="taxi"/>
    <trip id="tx_123" depart="885.60" from="-372464931#1" to="1280614485" type="taxi"/>
    <trip id="tx_124" depart="892.80" from="1280089201#0" to="-118672612#2" type="taxi"/>
    <trip id="tx_125" depart="900.00" from="295408459#3" to="1034028676#0" type="taxi"/>
    <trip id="tx_126" depart="907.20" from="-39368999#15" to="-39368999#13" type="taxi"/>
    <trip id="tx_127" depart="914.40" from="1279915921" to="560329291#0" type="taxi"/>
    <trip id="tx_128" depart="921.60" from="-35950882#2" to="295408459#7" type="taxi"/>
    <trip id="tx_129" depart="928.80" from="697200467#10" to="643237807#2" type="taxi"/>
    <trip id="tx_130" depart="936.00" from="694594970#0" to="295408460#2" type="taxi"/>
    <trip id="tx_131" depart="943.20" from="964171425#4" to="1282340735" type="taxi"/>
    <trip id="tx_132" depart="950.40" from="35950868#19" to="118575976#1" type="taxi"/>
    <trip id="tx_133" depart="957.60" from="694600787" to="1034028678" type="taxi"/>
    <trip id="tx_134" depart="964.80" from="694598419#1-AddedOnRampEdge" to="1280219259#1" type="taxi"/>
    <trip id="tx_135" depart="972.00" from="641397122#1" to="694598419#1-AddedOnRampEdge" type="taxi"/>
    <trip id="tx_136" depart="979.20" from="693885802#2" to="118567494" type="taxi"/>
    <trip id="tx_137" depart="986.40" from="1034027336#1" to="-118672606#9" type="taxi"/>
    <trip id="tx_138" depart="993.60" from="-828724758#0" to="-828724747#0" type="taxi"/>
    <trip id="tx_139" depart="1000.80" from="160628085#0" to="405962811#2" type="taxi"/>
    <trip id="tx_140" depart="1008.00" from="695025560#0" to="693885802#2" type="taxi"/>
    <trip id="tx_141" depart="1015.20" from="295408452#9" to="689583171#15" type="taxi"/>
    <trip id="tx_142" depart="1022.40" from="-344692547#0" to="696169688" type="taxi"/>
    <trip id="tx_143" depart="1029.60" from="39368999#11" to="695027208" type="taxi"/>
    <trip id="tx_144" depart="1036.80" from="-39368999#12" to="-828724684#1" type="taxi"/>
    <trip id="tx_145" depart="1044.00" from="695510008#2" to="-828678862#2" type="taxi"/>
    <trip id="tx_146" depart="1051.20" from="-39368999#1" to="-372220804#18" type="taxi"/>
    <trip id="tx_147" depart="1058.40" from="694774375#0" to="-676438753#2" type="taxi"/>
    <trip id="tx_148" depart="1065.60" from="295408468#4" to="697200467#4" type="taxi"/>
    <trip id="tx_149" depart="1072.80" from="695490087#1" to="39368999#13" type="taxi"/>
    <trip id="tx_150" depart="1080.00" from="695496042#0" to="39368999#6" type="taxi"/>
    <trip id="tx_151" depart="1087.20" from="1280089201#2" to="-828724810#1" type="taxi"/>
    <trip id="tx_152" depart="1094.40" from="372464937#2" to="295408461#4" type="taxi"/>
    <trip id="tx_153" depart="1101.60" from="695040105#3" to="1279915921" type="taxi"/>
    <trip id="tx_154" depart="1108.80" from="562709015#2" to="-828678808" type="taxi"/>
    <trip id="tx_155" depart="1116.00" from="-39368999#13" to="694601892" type="taxi"/>
    <trip id="tx_156" depart="1123.20" from="295408462#8" to="35950959#5" type="taxi"/>
    <trip id="tx_157" depart="1130.40" from="300949144#0" to="828724684#0" type="taxi"/>
    <trip id="tx_158" depart="1137.60" from="828724821#1" to="1034028676#2" type="taxi"/>
    <trip id="tx_159" depart="1144.80" from="408161670#0" to="779462187#1" type="taxi"/>
    <trip id="tx_160" depart="1152.00" from="689583171#5" to="408161670#20" type="taxi"/>
    <trip id="tx_161" depart="1159.20" from="693885804#0" to="694598419#1-AddedOnRampEdge" type="taxi"/>
    <trip id="tx_162" depart="1166.40" from="693416427" to="-118673929#6" type="taxi"/>
    <trip id="tx_163" depart="1173.60" from="1282340736" to="160628085#1" type="taxi"/>
    <trip id="tx_164" depart="1180.80" from="408161670#24" to="295408461#4" type="taxi"/>
    <trip id="tx_165" depart="1188.00" from="1034027336#1" to="39368999#14" type="taxi"/>
    <trip id="tx_166" depart="1195.20" from="779462187#1" to="199383481-AddedOnRampEdge" type="taxi"/>
    <trip id="tx_167" depart="1202.40" from="295408462#10" to="697200467#4" type="taxi"/>
    <trip id="tx_168" depart="1209.60" from="-39368999#8" to="35950868#20" type="taxi"/>
    <trip id="tx_169" depart="1216.80" from="-118570159#10" to="828678801#1" type="taxi"/>
    <trip id="tx_170" depart="1224.00" from="295408459#3" to="695025562#0" type="taxi"/>
    <trip id="tx_171" depart="1231.20" from="-828724758#0" to="694600787" type="taxi"/>
    <trip id="tx_172" depart="1238.40" from="1165643361" to="695446625#3" type="taxi"/>
    <trip id="tx_173" depart="1245.60" from="1282340717#2" to="295408452#0" type="taxi"/>
    <trip id="tx_174" depart="1252.80" from="697869050#1" to="964171425#5" type="taxi"/>
    <trip id="tx_175" depart="1260.00" from="295408459#3" to="695040552#0" type="taxi"/>
    <trip id="tx_176" depart="1267.20" from="689583171#6" to="295408460#3" type="taxi"/>
    <trip id="tx_177" depart="1274.40" from="-372220804#4" to="910359052#9" type="taxi"/>
    <trip id="tx_178" depart="1281.60" from="-372466114#3" to="964171425#5" type="taxi"/>
    <trip id="tx_179" depart="1288.80" from="-828724794" to="35950925#0" type="taxi"/>
    <trip id="tx_180" depart="1296.00" from="695295268" to="295408452#16-AddedOffRampEdge" type="taxi"/>
    <trip id="tx_181" depart="1303.20" from="39368999#10" to="160628085#2" type="taxi"/>
    <trip id="tx_182" depart="1310.40" from="695027208" to="118570178#1" type="taxi"/>
    <trip id="tx_183" depart="1317.60" from="828678875" to="39368999#17" type="taxi"/>
    <trip id="tx_184" depart="1324.80" from="-372464936" to="295408468#0" type="taxi"/>
    <trip id="tx_185" depart="1332.00" from="-641466470" to="694775628#0" type="taxi"/>
    <trip id="tx_186" depart="1339.20" from="695490087#1" to="1282340737" type="taxi"/>
    <trip id="tx_187" depart="1346.40" from="295408461#4" to="695040552#0" type="taxi"/>
    <trip id="tx_188" depart="1353.60" from="-35950868#18" to="295408452#5" type="taxi"/>
    <trip id="tx_189" depart="1360.80" from="695040105#5" to="302751284#3" type="taxi"/>
    <trip id="tx_190" depart="1368.00" from="35950897#15" to="695040552#1" type="taxi"/>
    <trip id="tx_191" depart="1375.20" from="698046188#1" to="-405962811#2" type="taxi"/>
    <trip id="tx_192" depart="1382.40" from="-300949144#1" to="694594970#0" type="taxi"/>
    <trip id="tx_193" depart="1389.60" from="1282340737" to="-1346339141#1" type="taxi"/>
    <trip id="tx_194" depart="1396.80" from="295408460#2" to="1280219258#0" type="taxi"/>
    <trip id="tx_195" depart="1404.00" from="695490086#1" to="-828678786" type="taxi"/>
    <trip id="tx_196" depart="1411.20" from="-828724821#1" to="695040552#1" type="taxi"/>
    <trip id="tx_197" depart="1418.40" from="1282340717#1" to="295408461#5" type="taxi"/>
    <trip id="tx_198" depart="1425.60" from="642356081#0" to="-676453142#0" type="taxi"/>
    <trip id="tx_199" depart="1432.80" from="118673921#2" to="1280219257#0" type="taxi"/>
    <trip id="tx_200" depart="1440.00" from="561667994#0" to="1280219261" type="taxi"/>
    <trip id="tx_201" depart="1447.20" from="-1279915898#8" to="910359052#9" type="taxi"/>
    <trip id="tx_202" depart="1454.40" from="295408452#7" to="35950939" type="taxi"/>
    <trip id="tx_203" depart="1461.60" from="118570159#4" to="1034028675#6" type="taxi"/>
    <trip id="tx_204" depart="1468.80" from="35950925#2" to="295408452#8" type="taxi"/>
    <trip id="tx_205" depart="1476.00" from="295408461#0" to="-828678816#0" type="taxi"/>
    <trip id="tx_206" depart="1483.20" from="693416739#3" to="-828678815" type="taxi"/>
    <trip id="tx_207" depart="1490.40" from="1391330070#4" to="693885802#0" type="taxi"/>
    <trip id="tx_208" depart="1497.60" from="295408464#0-AddedOffRampEdge" to="695510007#1" type="taxi"/>
    <trip id="tx_209" depart="1504.80" from="295408452#6" to="-695446623#1" type="taxi"/>
    <trip id="tx_210" depart="1512.00" from="910359052#0" to="-694737115#0" type="taxi"/>
    <trip id="tx_211" depart="1519.20" from="295408468#4" to="1280089201#2" type="taxi"/>
    <trip id="tx_212" depart="1526.40" from="-372467080" to="693416427" type="taxi"/>
    <trip id="tx_213" depart="1533.60" from="1280219266" to="295408452#10" type="taxi"/>
    <trip id="tx_214" depart="1540.80" from="118673944#7" to="-302739242#0" type="taxi"/>
    <trip id="tx_215" depart="1548.00" from="39368999#15" to="1282340736" type="taxi"/>
    <trip id="tx_216" depart="1555.20" from="295449627#5" to="694775628#2" type="taxi"/>
    <trip id="tx_217" depart="1562.40" from="-676458405#3" to="1391330070#9" type="taxi"/>
    <trip id="tx_218" depart="1569.60" from="-39368999#14" to="696168834#1" type="taxi"/>
    <trip id="tx_219" depart="1576.80" from="1280089222" to="-828724810#1" type="taxi"/>
    <trip id="tx_220" depart="1584.00" from="-295449619#0" to="-828724694#0" type="taxi"/>
    <trip id="tx_221" depart="1591.20" from="695295265#0" to="-828678800" type="taxi"/>
    <trip id="tx_222" depart="1598.40" from="295408452#9" to="-118575974#0" type="taxi"/>
    <trip id="tx_223" depart="1605.60" from="698046188#1" to="779462187#1" type="taxi"/>
    <trip id="tx_224" depart="1612.80" from="295128790#0" to="693885802#0" type="taxi"/>
    <trip id="tx_225" depart="1620.00" from="695544822" to="695504114#4" type="taxi"/>
    <trip id="tx_226" depart="1627.20" from="673151200#2" to="697200467#8" type="taxi"/>
    <trip id="tx_227" depart="1634.40" from="695496039#3" to="-372220804#33" type="taxi"/>
    <trip id="tx_228" depart="1641.60" from="1280219260#1" to="694772625#0" type="taxi"/>
    <trip id="tx_229" depart="1648.80" from="160628085#0" to="199383481-AddedOnRampEdge" type="taxi"/>
    <trip id="tx_230" depart="1656.00" from="696169688" to="1034027336#1" type="taxi"/>
    <trip id="tx_231" depart="1663.20" from="964171425#5" to="695496039#2" type="taxi"/>
    <trip id="tx_232" depart="1670.40" from="696168834#1" to="694601892" type="taxi"/>
    <trip id="tx_233" depart="1677.60" from="1280089201#1" to="199383481-AddedOnRampEdge" type="taxi"/>
    <trip id="tx_234" depart="1684.80" from="695496039#3" to="1280219261" type="taxi"/>
    <trip id="tx_235" depart="1692.00" from="1034028675#6" to="695502614" type="taxi"/>
    <trip id="tx_236" depart="1699.20" from="964171425#4" to="695504114#1" type="taxi"/>
    <trip id="tx_237" depart="1706.40" from="1280614485" to="698936203#7" type="taxi"/>
    <trip id="tx_238" depart="1713.60" from="295408452#9" to="1391330070#12" type="taxi"/>
    <trip id="tx_239" depart="1720.80" from="35950897#15" to="302739240#3" type="taxi"/>
    <trip id="tx_240" depart="1728.00" from="1282340736" to="372220804#19" type="taxi"/>
    <trip id="tx_241" depart="1735.20" from="408161670#0" to="160628085#2" type="taxi"/>
    <trip id="tx_242" depart="1742.40" from="828678864" to="828678791" type="taxi"/>
    <trip id="tx_243" depart="1749.60" from="35950925#2" to="696168834#1" type="taxi"/>
    <trip id="tx_244" depart="1756.80" from="-39368999#3" to="1280219261" type="taxi"/>
    <trip id="tx_245" depart="1764.00" from="295386152#2" to="118672299#1" type="taxi"/>
    <trip id="tx_246" depart="1771.20" from="-828724743" to="-35950864#5" type="taxi"/>
    <trip id="tx_247" depart="1778.40" from="1280614484" to="302751282" type="taxi"/>
    <trip id="tx_248" depart="1785.60" from="35950868#5" to="697200467#11" type="taxi"/>
    <trip id="tx_249" depart="1792.80" from="-118575968#1" to="964171425#4" type="taxi"/>
    <trip id="tx_250" depart="1800.00" from="35950864#8" to="693416739#3" type="taxi"/>
    <trip id="tx_251" depart="1807.20" from="698936203#4" to="408161670#27" type="taxi"/>
    <trip id="tx_252" depart="1814.40" from="-828678779#0" to="295408452#7" type="taxi"/>
    <trip id="tx_253" depart="1821.60" from="694600787" to="408161670#0" type="taxi"/>
    <trip id="tx_254" depart="1828.80" from="694601892" to="1280614505#1" type="taxi"/>
    <trip id="tx_255" depart="1836.00" from="695502614" to="1282340737" type="taxi"/>
    <trip id="tx_256" depart="1843.20" from="118573603#0" to="295408461#9" type="taxi"/>
    <trip id="tx_257" depart="1850.40" from="295128790#0" to="695025560#0" type="taxi"/>
    <trip id="tx_258" depart="1857.60" from="295449627#0" to="1282340737" type="taxi"/>
    <trip id="tx_259" depart="1864.80" from="697200467#9" to="1279915921" type="taxi"/>
    <trip id="tx_260" depart="1872.00" from="372467090#1" to="910359052#7" type="taxi"/>
    <trip id="tx_261" depart="1879.20" from="302751284#3" to="35950925#0" type="taxi"/>
    <trip id="tx_262" depart="1886.40" from="697200467#4" to="295408461#4" type="taxi"/>
    <trip id="tx_263" depart="1893.60" from="118566873#2" to="35950897#6" type="taxi"/>
    <trip id="tx_264" depart="1900.80" from="-641109023#1" to="693416739#0" type="taxi"/>
    <trip id="tx_265" depart="1908.00" from="695295268" to="-35950883#6" type="taxi"/>
    <trip id="tx_266" depart="1915.20" from="302751295#17" to="295408461#7" type="taxi"/>
    <trip id="tx_267" depart="1922.40" from="695504114#1" to="695496039#2" type="taxi"/>
    <trip id="tx_268" depart="1929.60" from="1280219261" to="35950868#19" type="taxi"/>
    <trip id="tx_269" depart="1936.80" from="1210918872#1" to="-828724749#0" type="taxi"/>
    <trip id="tx_270" depart="1944.00" from="693111346#0" to="-118570164#2" type="taxi"/>
    <trip id="tx_271" depart="1951.20" from="372220804#4" to="964171425#6" type="taxi"/>
    <trip id="tx_272" depart="1958.40" from="372464934#1" to="302751284#3" type="taxi"/>
    <trip id="tx_273" depart="1965.60" from="828678742" to="35950925#4" type="taxi"/>
    <trip id="tx_274" depart="1972.80" from="295408452#8" to="295408452#16-AddedOffRampEdge" type="taxi"/>
    <trip id="tx_275" depart="1980.00" from="160628085#1" to="1280614485" type="taxi"/>
    <trip id="tx_276" depart="1987.20" from="1279915896#0" to="295408459#5" type="taxi"/>
    <trip id="tx_277" depart="1994.40" from="689583171#15" to="118566872#4" type="taxi"/>
    <trip id="tx_278" depart="2001.60" from="-562709015#2" to="35950864#14" type="taxi"/>
    <trip id="tx_279" depart="2008.80" from="-35950883#9" to="295449625#1" type="taxi"/>
    <trip id="tx_280" depart="2016.00" from="695502611#1" to="302751284#3" type="taxi"/>
    <trip id="tx_281" depart="2023.20" from="35950864#23" to="118672606#2" type="taxi"/>
    <trip id="tx_282" depart="2030.40" from="696168834#0" to="828724754#0" type="taxi"/>
    <trip id="tx_283" depart="2037.60" from="295408452#16-AddedOffRampEdge" to="295394152#1" type="taxi"/>
    <trip id="tx_284" depart="2044.80" from="828724751" to="695496039#2" type="taxi"/>
    <trip id="tx_285" depart="2052.00" from="695490086#1" to="295408452#5" type="taxi"/>
    <trip id="tx_286" depart="2059.20" from="295408462#12" to="697200467#0" type="taxi"/>
    <trip id="tx_287" depart="2066.40" from="302751295#25" to="964171425#5" type="taxi"/>
    <trip id="tx_288" depart="2073.60" from="295408462#0" to="295408452#10" type="taxi"/>
    <trip id="tx_289" depart="2080.80" from="-697822848#1" to="302751295#19" type="taxi"/>
    <trip id="tx_290" depart="2088.00" from="828724763#1" to="-118575973#1" type="taxi"/>
    <trip id="tx_291" depart="2095.20" from="-302739239#1" to="694772625#0" type="taxi"/>
    <trip id="tx_292" depart="2102.40" from="295408452#16-AddedOffRampEdge" to="828724714#1" type="taxi"/>
    <trip id="tx_293" depart="2109.60" from="693416739#0" to="1282340717#2" type="taxi"/>
    <trip id="tx_294" depart="2116.80" from="1391330071" to="343417844#0" type="taxi"/>
    <trip id="tx_295" depart="2124.00" from="1280089201#1" to="696168834#0" type="taxi"/>
    <trip id="tx_296" depart="2131.20" from="-35950868#30" to="828724723" type="taxi"/>
    <trip id="tx_297" depart="2138.40" from="1034028677#0" to="828724700#0" type="taxi"/>
    <trip id="tx_298" depart="2145.60" from="295408452#5" to="695025562#0" type="taxi"/>
    <trip id="tx_299" depart="2152.80" from="408161670#24" to="408161670#22" type="taxi"/>
    <trip id="tx_300" depart="2160.00" from="-405113892#0" to="118673921#1" type="taxi"/>
    <trip id="tx_301" depart="2167.20" from="302739240#0" to="-372466118" type="taxi"/>
    <trip id="tx_302" depart="2174.40" from="-828678748" to="35950925#6" type="taxi"/>
    <trip id="tx_303" depart="2181.60" from="695025562#0" to="695040552#0" type="taxi"/>
    <trip id="tx_304" depart="2188.80" from="-698936202#1" to="160628085#1" type="taxi"/>
    <trip id="tx_305" depart="2196.00" from="695504114#0" to="695025560#0" type="taxi"/>
    <trip id="tx_306" depart="2203.20" from="-1282340713#0" to="302739240#4" type="taxi"/>
    <trip id="tx_307" depart="2210.40" from="-118688839#0" to="118555049#17" type="taxi"/>
    <trip id="tx_308" depart="2217.60" from="694600787" to="35950925#1" type="taxi"/>
    <trip id="tx_309" depart="2224.80" from="1279259377#0" to="199383481-AddedOnRampEdge" type="taxi"/>
    <trip id="tx_310" depart="2232.00" from="295449627#0" to="295408468#4" type="taxi"/>
    <trip id="tx_311" depart="2239.20" from="295408461#4" to="697200467#0" type="taxi"/>
    <trip id="tx_312" depart="2246.40" from="-828724759" to="295408452#6" type="taxi"/>
    <trip id="tx_313" depart="2253.60" from="295408462#10" to="-828678779#0" type="taxi"/>
    <trip id="tx_314" depart="2260.80" from="1418093030" to="302751282" type="taxi"/>
    <trip id="tx_315" depart="2268.00" from="118575966" to="295408460#2" type="taxi"/>
    <trip id="tx_316" depart="2275.20" from="828678794#0" to="698936203#7" type="taxi"/>
    <trip id="tx_317" depart="2282.40" from="694598419#0" to="-828678860#4" type="taxi"/>
    <trip id="tx_318" depart="2289.60" from="35950897#10" to="-35950868#25" type="taxi"/>
    <trip id="tx_319" depart="2296.80" from="1280219257#0" to="408161672#0" type="taxi"/>
    <trip id="tx_320" depart="2304.00" from="295449625#0" to="1280089222" type="taxi"/>
    <trip id="tx_321" depart="2311.20" from="295408452#1" to="-302751285#0" type="taxi"/>
    <trip id="tx_322" depart="2318.40" from="1391330070#4" to="35950882#3" type="taxi"/>
    <trip id="tx_323" depart="2325.60" from="694600787" to="695025562#0" type="taxi"/>
    <trip id="tx_324" depart="2332.80" from="694583900#0-AddedOffRampEdge" to="1280219260#0" type="taxi"/>
    <trip id="tx_325" depart="2340.00" from="910359052#5" to="295408462#12" type="taxi"/>