<?xml version="1.0" encoding="UTF-8"?>

<!-- generated on 2026-03-24 14:36:53.681810 by Eclipse SUMO randomTrips.py v1_26_0+0000-fa7df22d7f1
<configuration>
    <net-file value="D:\WeSaveTime-ASEAN\sumo\danang\danang.net.xml"/>
    <additional-files value="D:\WeSaveTime-ASEAN\sumo\danang\danang.vtypes.xml"/>
    <weights-prefix value="D:\WeSaveTime-ASEAN\sumo\danang\danang.weights"/>
    <output-trip-file value="D:\WeSaveTime-ASEAN\sumo\danang\danang.ca_.trips.xml"/>
    <prefix value="ca_"/>
    <trip-attributes value="type=&quot;car&quot;"/>
    <fringe-factor value="5"/>
    <random value="True"/>
    <remove-loops value="True"/>
    <end value="600.0"/>
    <period value="1.67"/>
</configuration>
-->

<routes xmlns:xsi="http://www.w3.org/2001/XMLSchema-instance" xsi:noNamespaceSchemaLocation="http://sumo.dlr.de/xsd/routes_file.xsd">
    <trip id="ca_0" depart="0.00" from="1282340772" to="694767769" type="car"/>
    <trip id="ca_1" depart="1.67" from="697200467#8" to="-1387292390#0" type="car"/>
    <trip id="ca_2" depart="3.34" from="-39368999#8" to="696169687#1" type="car"/>
    <trip id="ca_3" depart="5.01" from="372467090#1" to="1280219257#2" type="car"/>
    <trip id="ca_4" depart="6.68" from="-35950868#9" to="828678794#1" type="car"/>
    <trip id="ca_5" depart="8.35" from="693416739#3" to="693416427" type="car"/>
    <trip id="ca_6" depart="10.02" from="910359052#9" to="-1282340713#0" type="car"/>
    <trip id="ca_7" depart="11.69" from="372464934#0" to="695295267#2" type="car"/>
    <trip id="ca_8" depart="13.36" from="673151142#5" to="1280219267" type="car"/>
    <trip id="ca_9" depart="15.03" from="964171425#0" to="1280219257#2" type="car"/>
    <trip id="ca_10" depart="16.70" from="694830397" to="695496039#0" type="car"/>
    <trip id="ca_11" depart="18.37" from="295408452#11" to="-828724715" type="car"/>
    <trip id="ca_12" depart="20.04" from="-39368999#10" to="118567494" type="car"/>
    <trip id="ca_13" depart="21.71" from="695040105#5" to="295408468#0" type="car"/>
    <trip id="ca_14" depart="23.38" from="321069035#3" to="1034028675#2" type="car"/>
    <trip id="ca_15" depart="25.05" from="295449627#2" to="372464931#0" type="car"/>
    <trip id="ca_16" depart="26.72" from="35950897#0" to="695446625#3" type="car"/>
    <trip id="ca_17" depart="28.39" from="-641397118" to="910359052#5" type="car"/>
    <trip id="ca_18" depart="30.06" from="-35950868#21" to="910359052#0" type="car"/>
    <trip id="ca_19" depart="31.73" from="256668722" to="-295386152#0" type="car"/>
    <trip id="ca_20" depart="33.40" from="408161670#28" to="295449627#4" type="car"/>
    <trip id="ca_21" depart="35.07" from="695510008#2" to="-118570174#2" type="car"/>
    <trip id="ca_22" depart="36.74" from="695446625#0" to="343417844#0" type="car"/>
    <trip id="ca_23" depart="38.41" from="695502611#1" to="-118566872#12" type="car"/>
    <trip id="ca_24" depart="40.08" from="1280089201#0" to="295408465#2-AddedOnRampEdge" type="car"/>
    <trip id="ca_25" depart="41.75" from="-118672606#0" to="408161670#25" type="car"/>
    <trip id="ca_26" depart="43.42" from="-561913438#0" to="910359052#7" type="car"/>
    <trip id="ca_27" depart="45.09" from="118566872#4" to="828678878#1" type="car"/>
    <trip id="ca_28" depart="46.76" from="695040552#0" to="295449627#2" type="car"/>
    <trip id="ca_29" depart="48.43" from="695040552#0" to="695030266" type="car"/>
    <trip id="ca_30" depart="50.10" from="695496039#2" to="695040105#0" type="car"/>
    <trip id="ca_31" depart="51.77" from="405113893#1" to="676438752#3" type="car"/>
    <trip id="ca_32" depart="53.44" from="-295386152#8" to="695496039#1" type="car"/>
    <trip id="ca_33" depart="55.11" from="-696715601" to="295408452#7" type="car"/>
    <trip id="ca_34" depart="56.78" from="160628085#0" to="321069035#6" type="car"/>
    <trip id="ca_35" depart="58.45" from="697822848#0" to="676453140#3" type="car"/>
    <trip id="ca_36" depart="60.12" from="35950897#0" to="693885804#0" type="car"/>
    <trip id="ca_37" depart="61.79" from="295408452#5" to="695496042#0" type="car"/>
    <trip id="ca_38" depart="63.46" from="295449627#3" to="561913438#5" type="car"/>
    <trip id="ca_39" depart="65.13" from="1034028675#0" to="1034028676#2" type="car"/>
    <trip id="ca_40" depart="66.80" from="302751284#0" to="35950897#0" type="car"/>
    <trip id="ca_41" depart="68.47" from="895450605" to="695033474#1" type="car"/>
    <trip id="ca_42" depart="70.14" from="1282340717#2" to="295128790#3" type="car"/>
    <trip id="ca_43" depart="71.81" from="695033474#1" to="-828724768#3" type="car"/>
    <trip id="ca_44" depart="73.48" from="118570174#2" to="1210918873#1" type="car"/>
    <trip id="ca_45" depart="75.15" from="408161670#13" to="408161670#16" type="car"/>
    <trip id="ca_46" depart="76.82" from="964171425#5" to="828678876#0" type="car"/>
    <trip id="ca_47" depart="78.49" from="695496039#3" to="295408452#9" type="car"/>
    <trip id="ca_48" depart="80.16" from="-372464935#1" to="1210918873#0" type="car"/>
    <trip id="ca_49" depart="81.83" from="-118688839#5" to="35950868#20" type="car"/>
    <trip id="ca_50" depart="83.50" from="-302751295#0" to="-642047428" type="car"/>
    <trip id="ca_51" depart="85.17" from="910359052#9" to="676453142#1" type="car"/>
    <trip id="ca_52" depart="86.84" from="695496039#3" to="1280089201#1" type="car"/>
    <trip id="ca_53" depart="88.51" from="1280614504#1" to="696168834#0" type="car"/>
    <trip id="ca_54" depart="90.18" from="-676453140#2" to="695446625#1" type="car"/>
    <trip id="ca_55" depart="91.85" from="295408452#16" to="295449627#4" type="car"/>
    <trip id="ca_56" depart="93.52" from="-39354228#3" to="696168834#0" type="car"/>
    <trip id="ca_57" depart="95.19" from="1280089201#1" to="695504114#0" type="car"/>
    <trip id="ca_58" depart="96.86" from="676453140#2" to="676714129" type="car"/>
    <trip id="ca_59" depart="98.53" from="1282715056" to="-295449620" type="car"/>
    <trip id="ca_60" depart="100.20" from="-641457630" to="-372589137#1" type="car"/>
    <trip id="ca_61" depart="101.87" from="295408459#5" to="1379125025" type="car"/>
    <trip id="ca_62" depart="103.54" from="295408452#5" to="1280219265" type="car"/>
    <trip id="ca_63" depart="105.21" from="689583171#11" to="828678861" type="car"/>
    <trip id="ca_64" depart="106.88" from="641397122#1" to="1280219260#1" type="car"/>
    <trip id="ca_65" depart="108.55" from="695496039#3" to="295128790#4" type="car"/>
    <trip id="ca_66" depart="110.22" from="295408452#1" to="295408468#0" type="car"/>
    <trip id="ca_67" depart="111.89" from="964171425#0" to="693885804#0" type="car"/>
    <trip id="ca_68" depart="113.56" from="-895430059" to="1034028675#0" type="car"/>
    <trip id="ca_69" depart="115.23" from="695496042#0" to="295408465#2-AddedOnRampEdge" type="car"/>
    <trip id="ca_70" depart="116.90" from="-562701502#3" to="1280614485" type="car"/>
    <trip id="ca_71" depart="118.57" from="-1076293830#1" to="-35950868#7" type="car"/>
    <trip id="ca_72" depart="120.24" from="295449627#2" to="694774375#0" type="car"/>
    <trip id="ca_73" depart="121.91" from="35950868#29" to="295408468#4" type="car"/>
    <trip id="ca_74" depart="123.58" from="964171425#2" to="-676438753#2" type="car"/>
    <trip id="ca_75" depart="125.25" from="408161670#16" to="1282340736" type="car"/>
    <trip id="ca_76" depart="126.92" from="35950882#10" to="1280089201#0" type="car"/>
    <trip id="ca_77" depart="128.59" from="118567884" to="1280089201#2" type="car"/>
    <trip id="ca_78" depart="130.26" from="693416427" to="693416739#0" type="car"/>
    <trip id="ca_79" depart="131.93" from="-39368999#12" to="689583171#12" type="car"/>
    <trip id="ca_80" depart="133.60" from="-118570164#4" to="694594970#0" type="car"/>
    <trip id="ca_81" depart="135.27" from="828678822#0" to="-118570168#6" type="car"/>
    <trip id="ca_82" depart="136.94" from="693330103#2" to="673151200#2" type="car"/>
    <trip id="ca_83" depart="138.61" from="1392384120#3" to="695025559" type="car"/>
    <trip id="ca_84" depart="140.28" from="828678777#0" to="828678806" type="car"/>
    <trip id="ca_85" depart="141.95" from="695446625#0" to="1426764507#2" type="car"/>
    <trip id="ca_86" depart="143.62" from="695504114#1" to="828724775" type="car"/>
    <trip id="ca_87" depart="145.29" from="1426764507#2" to="-118673921#4" type="car"/>
    <trip id="ca_88" depart="146.96" from="160628085#2" to="372220804#34" type="car"/>
    <trip id="ca_89" depart="148.63" from="118673928" to="1282340716" type="car"/>
    <trip id="ca_90" depart="150.30" from="695033474#1" to="-321069049#2" type="car"/>
    <trip id="ca_91" depart="151.97" from="694600787" to="295408461#1" type="car"/>
    <trip id="ca_92" depart="153.64" from="694598419#1" to="295449627#0" type="car"/>
    <trip id="ca_93" depart="155.31" from="343236557#0" to="-1207701497" type="car"/>
    <trip id="ca_94" depart="156.98" from="-373009311#0" to="118575976#1" type="car"/>
    <trip id="ca_95" depart="158.65" from="1076293830#0" to="-828678874#0" type="car"/>
    <trip id="ca_96" depart="160.32" from="697200467#4" to="-828678903" type="car"/>
    <trip id="ca_97" depart="161.99" from="828724775" to="695496039#3" type="car"/>
    <trip id="ca_98" depart="163.66" from="-828724776" to="-828678912#4" type="car"/>
    <trip id="ca_99" depart="165.33" from="295408461#4" to="1280089201#0" type="car"/>
    <trip id="ca_100" depart="167.00" from="695502611#0" to="39368999#17" type="car"/>
    <trip id="ca_101" depart="168.67" from="295408462#12" to="39368999#15" type="car"/>
    <trip id="ca_102" depart="170.34" from="-828678773#1" to="1282340735" type="car"/>
    <trip id="ca_103" depart="172.01" from="673151142#5" to="408161670#28" type="car"/>
    <trip id="ca_104" depart="173.68" from="697200467#4-AddedOffRampEdge" to="-302751295#0" type="car"/>
    <trip id="ca_105" depart="175.35" from="693416739#3" to="695504114#4" type="car"/>
    <trip id="ca_106" depart="177.02" from="295408465#2-AddedOnRampEdge" to="295408465#2-AddedOnRampEdge" type="car"/>
    <trip id="ca_107" depart="178.69" from="295408459#1" to="-676438753#1" type="car"/>
    <trip id="ca_108" depart="180.36" from="-118674615#2" to="35950868#17" type="car"/>
    <trip id="ca_109" depart="182.03" from="-828678794#1" to="696169687#1" type="car"/>
    <trip id="ca_110" depart="183.70" from="118570145#0" to="1418093030" type="car"/>
    <trip id="ca_111" depart="185.37" from="295408452#6" to="-344658497#2" type="car"/>
    <trip id="ca_112" depart="187.04" from="695496039#2" to="-676458408" type="car"/>
    <trip id="ca_113" depart="188.71" from="1282340736" to="641466472" type="car"/>
    <trip id="ca_114" depart="190.38" from="964171425#4" to="828678787#3" type="car"/>
    <trip id="ca_115" depart="192.05" from="118570174#0" to="673151142#4" type="car"/>
    <trip id="ca_116" depart="193.72" from="1280219257#1" to="828724768#4" type="car"/>
    <trip id="ca_117" depart="195.39" from="408161670#21" to="1418093030" type="car"/>
    <trip id="ca_118" depart="197.06" from="1280089222" to="408161670#20" type="car"/>
    <trip id="ca_119" depart="198.73" from="1426764507#2" to="1280219266" type="car"/>
    <trip id="ca_120" depart="200.40" from="695510007#1" to="-828678741#1" type="car"/>
    <trip id="ca_121" depart="202.07" from="695030266" to="697200467#4-AddedOffRampEdge" type="car"/>
    <trip id="ca_122" depart="203.74" from="1280219257#1" to="-118566872#9" type="car"/>
    <trip id="ca_123" depart="205.41" from="118673944#6" to="695025560#1" type="car"/>
    <trip id="ca_124" depart="207.08" from="372466122#1" to="295408452#11" type="car"/>
    <trip id="ca_125" depart="208.75" from="695446623#1" to="302751282-AddedOnRampEdge" type="car"/>
    <trip id="ca_126" depart="210.42" from="118567495" to="295408463#0" type="car"/>
    <trip id="ca_127" depart="212.09" from="693885804#0" to="1280219259#0" type="car"/>
    <trip id="ca_128" depart="213.76" from="-118570181#3" to="199383481" type="car"/>
    <trip id="ca_129" depart="215.43" from="118570159#3" to="695496039#0" type="car"/>
    <trip id="ca_130" depart="217.10" from="-373009311#1" to="697200467#1" type="car"/>
    <trip id="ca_131" depart="218.77" from="562709015#4" to="-118570172#2" type="car"/>
    <trip id="ca_132" depart="220.44" from="-321069050#2" to="295449627#2" type="car"/>
    <trip id="ca_133" depart="222.11" from="295449627#5" to="408161670#23" type="car"/>
    <trip id="ca_134" depart="223.78" from="828724756#1" to="697200467#4-AddedOffRampEdge" type="car"/>
    <trip id="ca_135" depart="225.45" from="295408459#1" to="1160397532" type="car"/>
    <trip id="ca_136" depart="227.12" from="295408452#16-AddedOffRampEdge" to="-35950850#10" type="car"/>
    <trip id="ca_137" depart="228.79" from="35950897#0" to="694598419#1-AddedOnRampEdge" type="car"/>
    <trip id="ca_138" depart="230.46" from="295408463#0" to="-295386152#8" type="car"/>
    <trip id="ca_139" depart="232.13" from="964171425#0" to="828724748" type="car"/>
    <trip id="ca_140" depart="233.80" from="295408452#7" to="-372466121#0" type="car"/>
    <trip id="ca_141" depart="235.47" from="694737115#1" to="695502611#0" type="car"/>
    <trip id="ca_142" depart="237.14" from="-562701498" to="160628085#1" type="car"/>
    <trip id="ca_143" depart="238.81" from="694583900#0-AddedOffRampEdge" to="694583900#0-AddedOffRampEdge" type="car"/>
    <trip id="ca_144" depart="240.48" from="295408462#0" to="118570168#6" type="car"/>
    <trip id="ca_145" depart="242.15" from="295408463#0" to="1279915898#0" type="car"/>
    <trip id="ca_146" depart="243.82" from="295408468#0" to="-642396065" type="car"/>
    <trip id="ca_147" depart="245.49" from="694830395#1" to="1034028676#1" type="car"/>
    <trip id="ca_148" depart="247.16" from="641397122#0" to="695025562#1" type="car"/>
    <trip id="ca_149" depart="248.83" from="695295268" to="695025562#0" type="car"/>
    <trip id="ca_150" depart="250.50" from="35950868#8" to="295408460#2" type="car"/>
    <trip id="ca_151" depart="252.17" from="693885804#0" to="676438753#2" type="car"/>
    <trip id="ca_152" depart="253.84" from="408161670#27" to="-256672293" type="car"/>
    <trip id="ca_153" depart="255.51" from="696168834#0" to="-828724724#1" type="car"/>
    <trip id="ca_154" depart="257.18" from="828724711#1" to="673151142#4" type="car"/>
    <trip id="ca_155" depart="258.85" from="-560329296" to="302739242#0" type="car"/>
    <trip id="ca_156" depart="260.52" from="697200467#8" to="695295267#0" type="car"/>
    <trip id="ca_157" depart="262.19" from="1280219266" to="828678806" type="car"/>
    <trip id="ca_158" depart="263.86" from="694202154#0" to="-828724777#1" type="car"/>
    <trip id="ca_159" depart="265.53" from="696169688" to="695025562#0" type="car"/>
    <trip id="ca_160" depart="267.20" from="35950925#0" to="694774375#0" type="car"/>
    <trip id="ca_161" depart="268.87" from="118567494" to="1034028676#0" type="car"/>
    <trip id="ca_162" depart="270.54" from="118688839#4" to="295449625#1" type="car"/>
    <trip id="ca_163" depart="272.21" from="964171425#5" to="694598419#1-AddedOnRampEdge" type="car"/>
    <trip id="ca_164" depart="273.88" from="295408461#1" to="199383481-AddedOnRampEdge" type="car"/>
    <trip id="ca_165" depart="275.55" from="693885804#2" to="-828678810#1" type="car"/>
    <trip id="ca_166" depart="277.22" from="693330103#2" to="-35950868#19" type="car"/>
    <trip id="ca_167" depart="278.89" from="295408462#0" to="1280219259#0" type="car"/>
    <trip id="ca_168" depart="280.56" from="694598419#1" to="1392384123" type="car"/>
    <trip id="ca_169" depart="282.23" from="698046188#1" to="828724764#0" type="car"/>
    <trip id="ca_170" depart="283.90" from="1034028677#0" to="-828724737" type="car"/>
    <trip id="ca_171" depart="285.57" from="910359052#8" to="1034028675#6" type="car"/>
    <trip id="ca_172" depart="287.24" from="828724727" to="828678829" type="car"/>
    <trip id="ca_173" depart="288.91" from="828678826#0" to="828724681" type="car"/>
    <trip id="ca_174" depart="290.58" from="-828678857" to="695040552#1" type="car"/>
    <trip id="ca_175" depart="292.25" from="39368999#17" to="694598419#1" type="car"/>
    <trip id="ca_176" depart="293.92" from="405962812#2" to="779462187#1" type="car"/>
    <trip id="ca_177" depart="295.59" from="302751295#1" to="295408452#16-AddedOffRampEdge" type="car"/>
    <trip id="ca_178" depart="297.26" from="695490086#1" to="118570149#0" type="car"/>
    <trip id="ca_179" depart="298.93" from="642098832#1" to="-828724696" type="car"/>
    <trip id="ca_180" depart="300.60" from="693885804#2" to="1280219250" type="car"/>
    <trip id="ca_181" depart="302.27" from="694601892" to="693885804#2" type="car"/>
    <trip id="ca_182" depart="303.94" from="1280219259#1" to="-641106174" type="car"/>
    <trip id="ca_183" depart="305.61" from="695295267#0" to="302751282-AddedOnRampEdge" type="car"/>
    <trip id="ca_184" depart="307.28" from="-39368999#16" to="405962814" type="car"/>
    <trip id="ca_185" depart="308.95" from="1280219261" to="695504114#1" type="car"/>
    <trip id="ca_186" depart="310.62" from="693885804#2" to="695496039#3" type="car"/>
    <trip id="ca_187" depart="312.29" from="-118570167#0" to="673151142#5" type="car"/>
    <trip id="ca_188" depart="313.96" from="295408452#6" to="35950868#19" type="car"/>
    <trip id="ca_189" depart="315.63" from="372464931#1" to="-118570168#6" type="car"/>
    <trip id="ca_190" depart="317.30" from="-828678773#1" to="695496039#1" type="car"/>
    <trip id="ca_191" depart="318.97" from="694598419#0" to="-35950868#7" type="car"/>
    <trip id="ca_192" depart="320.64" from="118673944#8" to="-641112951" type="car"/>
    <trip id="ca_193" depart="322.31" from="910359052#9" to="1034028676#0" type="car"/>
    <trip id="ca_194" depart="323.98" from="562634341" to="695295267#2" type="car"/>
    <trip id="ca_195" depart="325.65" from="35950897#6" to="199383481-AddedOnRampEdge" type="car"/>
    <trip id="ca_196" depart="327.32" from="696686428" to="408161670#22" type="car"/>
    <trip id="ca_197" depart="328.99" from="-828678814#2" to="302751282" type="car"/>
    <trip id="ca_198" depart="330.66" from="828724699#2" to="-405113896#1" type="car"/>
    <trip id="ca_199" depart="332.33" from="118672606#7" to="-828678865" type="car"/>
    <trip id="ca_200" depart="334.00" from="295408462#12" to="697200467#9" type="car"/>
    <trip id="ca_201" depart="335.67" from="-39368999#14" to="828678749#1" type="car"/>
    <trip id="ca_202" depart="337.34" from="694601892" to="295408452#10" type="car"/>
    <trip id="ca_203" depart="339.01" from="1280089201#1" to="302739240#0" type="car"/>
    <trip id="ca_204" depart="340.68" from="1392384120#0" to="-828724763#1" type="car"/>
    <trip id="ca_205" depart="342.35" from="-560329291#1" to="641397118" type="car"/>
    <trip id="ca_206" depart="344.02" from="-118672608#0" to="-118566872#3" type="car"/>
    <trip id="ca_207" depart="345.69" from="1280219265" to="295408463#0" type="car"/>
    <trip id="ca_208" depart="347.36" from="695295268" to="302739242#1" type="car"/>
    <trip id="ca_209" depart="349.03" from="695040105#5" to="1280614505#0" type="car"/>
    <trip id="ca_210" depart="350.70" from="964171425#0" to="828724699#0" type="car"/>
    <trip id="ca_211" depart="352.37" from="-676451738#0" to="408161670#16" type="car"/>
    <trip id="ca_212" depart="354.04" from="695033474#1" to="-828678861" type="car"/>
    <trip id="ca_213" depart="355.71" from="1280219258#0" to="694774375#0" type="car"/>
    <trip id="ca_214" depart="357.38" from="1280614485" to="-118570159#10" type="car"/>
    <trip id="ca_215" depart="359.05" from="35950925#1" to="828678858" type="car"/>
    <trip id="ca_216" depart="360.72" from="695025559" to="1034028678" type="car"/>
    <trip id="ca_217" depart="362.39" from="295408462#0" to="1034028676#1" type="car"/>
    <trip id="ca_218" depart="364.06" from="828678773#2" to="302751295#11" type="car"/>
    <trip id="ca_219" depart="365.73" from="828724791" to="828724757#1" type="car"/>
    <trip id="ca_220" depart="367.40" from="302751295#2" to="693885804#0" type="car"/>
    <trip id="ca_221" depart="369.07" from="1279915921" to="673151142#2" type="car"/>
    <trip id="ca_222" depart="370.74" from="35950897#10" to="1034028676#2" type="car"/>
    <trip id="ca_223" depart="372.41" from="372464936" to="695040552#1" type="car"/>
    <trip id="ca_224" depart="374.08" from="-295386165" to="-562701507#0" type="car"/>
    <trip id="ca_225" depart="375.75" from="118570168#3" to="-302751285#0" type="car"/>
    <trip id="ca_226" depart="377.42" from="828678903" to="695040105#0" type="car"/>
    <trip id="ca_227" depart="379.09" from="35950850#24" to="828724752#1" type="car"/>
    <trip id="ca_228" depart="380.76" from="695504114#1" to="693885804#2" type="car"/>
    <trip id="ca_229" depart="382.43" from="-118570181#1" to="1387292390#1" type="car"/>
    <trip id="ca_230" depart="384.10" from="689583171#4" to="-118672607#5" type="car"/>
    <trip id="ca_231" depart="385.77" from="828724776" to="695496042#1" type="car"/>
    <trip id="ca_232" depart="387.44" from="302751295#21" to="1282340713#0" type="car"/>
    <trip id="ca_233" depart="389.11" from="-39368999#15" to="408161670#20" type="car"/>
    <trip id="ca_234" depart="390.78" from="-35950868#13" to="697200467#0" type="car"/>
    <trip id="ca_235" depart="392.45" from="-118575969#1" to="-118672299#1" type="car"/>
    <trip id="ca_236" depart="394.12" from="695502611#1" to="-676714129" type="car"/>
    <trip id="ca_237" depart="395.79" from="-118570159#6" to="673151200#0" type="car"/>
    <trip id="ca_238" depart="397.46" from="295449627#4" to="-642356081#1" type="car"/>
    <trip id="ca_239" depart="399.13" from="-344658497#1" to="295408452#10" type="car"/>
    <trip id="ca_240" depart="400.80" from="-35950864#27" to="35950939" type="car"/>
    <trip id="ca_241" depart="402.47" from="408161670#28" to="1210918872#0" type="car"/>
    <trip id="ca_242" depart="404.14" from="1034028676#1" to="1034028677#0" type="car"/>
    <trip id="ca_243" depart="405.81" from="295408452#5" to="-1387292390#0" type="car"/>
    <trip id="ca_244" depart="407.48" from="695025562#0" to="1282340713#1" type="car"/>
    <trip id="ca_245" depart="409.15" from="-828724703" to="118672299#3" type="car"/>
    <trip id="ca_246" depart="410.82" from="-696715602" to="199383481-AddedOnRampEdge" type="car"/>
    <trip id="ca_247" depart="412.49" from="35950925#7" to="1279259377#0" type="car"/>
    <trip id="ca_248" depart="414.16" from="-828724758#1" to="302751282" type="car"/>
    <trip id="ca_249" depart="415.83" from="694830397" to="694767769" type="car"/>
    <trip id="ca_250" depart="417.50" from="118575969#0" to="1280089222" type="car"/>
    <trip id="ca_251" depart="419.17" from="695446625#3" to="-118566873#2" type="car"/>
    <trip id="ca_252" depart="420.84" from="828724731" to="828724687" type="car"/>
    <trip id="ca_253" depart="422.51" from="696169688" to="-560329291#0" type="car"/>
    <trip id="ca_254" depart="424.18" from="694598419#0" to="-343237264#2" type="car"/>
    <trip id="ca_255" depart="425.85" from="695502613" to="35950897#6" type="car"/>
    <trip id="ca_256" depart="427.52" from="694583900#0" to="695295265#0" type="car"/>
    <trip id="ca_257" depart="429.19" from="1447078728#0" to="695496040" type="car"/>
    <trip id="ca_258" depart="430.86" from="694601892" to="1034028675#0" type="car"/>
    <trip id="ca_259" depart="432.53" from="295408452#10" to="1282340717#2" type="car"/>
    <trip id="ca_260" depart="434.20" from="696169688" to="-118575974#4" type="car"/>
    <trip id="ca_261" depart="435.87" from="-372466117#1" to="-372220804#16" type="car"/>
    <trip id="ca_262" depart="437.54" from="-696701808" to="295128790#4" type="car"/>
    <trip id="ca_263" depart="439.21" from="-698067307#0" to="295408468#0" type="car"/>
    <trip id="ca_264" depart="440.88" from="828678905" to="295408468#6" type="car"/>
    <trip id="ca_265" depart="442.55" from="295408464#0" to="-35950883#6" type="car"/>
    <trip id="ca_266" depart="444.22" from="295408452#16" to="-828678901" type="car"/>
    <trip id="ca_267" depart="445.89" from="408161670#28" to="694601892" type="car"/>
    <trip id="ca_268" depart="447.56" from="-35950864#27" to="695025562#1" type="car"/>
    <trip id="ca_269" depart="449.23" from="828678861" to="1282340716" type="car"/>
    <trip id="ca_270" depart="450.90" from="-372467087#2" to="35950850#0" type="car"/>
    <trip id="ca_271" depart="452.57" from="-35950864#2" to="828724735" type="car"/>
    <trip id="ca_272" depart="454.24" from="694830396" to="779462187#1" type="car"/>
    <trip id="ca_273" depart="455.91" from="694601892" to="-828724700#3" type="car"/>
    <trip id="ca_274" depart="457.58" from="302751284#3" to="964171425#2" type="car"/>
    <trip id="ca_275" depart="459.25" from="118567489#2" to="696169687#1" type="car"/>
    <trip id="ca_276" depart="460.92" from="695446625#3" to="35950897#0" type="car"/>
    <trip id="ca_277" depart="462.59" from="695295267#2" to="-765351891#4" type="car"/>
    <trip id="ca_278" depart="464.26" from="828724768#3" to="673151142#2" type="car"/>
    <trip id="ca_279" depart="465.93" from="560329291#1" to="-372464937#1" type="car"/>
    <trip id="ca_280" depart="467.60" from="673151145#1" to="-828678769#0" type="car"/>
    <trip id="ca_281" depart="469.27" from="695040105#5" to="118673944#2" type="car"/>
    <trip id="ca_282" depart="470.94" from="910359052#3" to="695040105#0" type="car"/>
    <trip id="ca_283" depart="472.61" from="321069043#0" to="408161670#16" type="car"/>
    <trip id="ca_284" depart="474.28" from="695025562#1" to="-1282340733#1" type="car"/>
    <trip id="ca_285" depart="475.95" from="-295449622#2" to="698936203#3" type="car"/>
    <trip id="ca_286" depart="477.62" from="-695510008#0" to="295408468#4" type="car"/>
    <trip id="ca_287" depart="479.29" from="695496042#0" to="302751282-AddedOnRampEdge" type="car"/>
    <trip id="ca_288" depart="480.96" from="695496039#1" to="408161672#1" type="car"/>
    <trip id="ca_289" depart="482.63" from="-828724704" to="-372220804#29" type="car"/>
    <trip id="ca_290" depart="484.30" from="-39368999#16" to="828724767#0" type="car"/>
    <trip id="ca_291" depart="485.97" from="295408464#0-AddedOffRampEdge" to="-344658497#3" type="car"/>
    <trip id="ca_292" depart="487.64" from="1034028675#2" to="35950897#10" type="car"/>
    <trip id="ca_293" depart="489.31" from="-39368999#1" to="910359052#5" type="car"/>
    <trip id="ca_294" depart="490.98" from="295408452#10" to="695510007#0" type="car"/>
    <trip id="ca_295" depart="492.65" from="964171425#0" to="642067353" type="car"/>
    <trip id="ca_296" depart="494.32" from="-828724698" to="408161670#22" type="car"/>
    <trip id="ca_297" depart="495.99" from="-118566872#9" to="295128790#4" type="car"/>
    <trip id="ca_298" depart="497.66" from="-118575975#0" to="1282340719" type="car"/>
    <trip id="ca_299" depart="499.33" from="828678868" to="302739240#4" type="car"/>
    <trip id="ca_300" depart="501.00" from="295408477" to="-828678870" type="car"/>
    <trip id="ca_301" depart="502.67" from="-321069049#2" to="295408468#0" type="car"/>
    <trip id="ca_302" depart="504.34" from="693111346#0" to="828724786" type="car"/>
    <trip id="ca_303" depart="506.01" from="696991611#2" to="295128790#4" type="car"/>
    <trip id="ca_304" depart="507.68" from="35950897#15" to="-689583178#2" type="car"/>
    <trip id="ca_305" depart="509.35" from="689583171#7" to="693885804#0" type="car"/>
    <trip id="ca_306" depart="511.02" from="295408452#1" to="694601892" type="car"/>
    <trip id="ca_307" depart="512.69" from="118570175" to="-118570159#5" type="car"/>
    <trip id="ca_308" depart="514.36" from="695446623#1" to="695504114#1" type="car"/>
    <trip id="ca_309" depart="516.03" from="-673151200#0" to="118673947#1" type="car"/>
    <trip id="ca_310" depart="517.70" from="295128790#4" to="-828678815" type="car"/>
    <trip id="ca_311" depart="519.37" from="695490087#1" to="560329300" type="car"/>
    <trip id="ca_312" depart="521.04" from="295449627#5" to="1210918873#0" type="car"/>
    <trip id="ca_313" depart="522.71" from="-1346339141#0" to="695025562#1" type="car"/>
    <trip id="ca_314" depart="524.38" from="694598419#1" to="408161670#20" type="car"/>
    <trip id="ca_315" depart="526.05" from="694830397" to="1391330070#4" type="car"/>
    <trip id="ca_316" depart="527.72" from="1426764507#0" to="-676455250#1" type="car"/>
    <trip id="ca_317" depart="529.39" from="295408452#5" to="-828678858" type="car"/>
    <trip id="ca_318" depart="531.06" from="695446625#3" to="295408452#11" type="car"/>
    <trip id="ca_319" depart="532.73" from="964171425#0" to="-405962815#1" type="car"/>
    <trip id="ca_320" depart="534.40" from="295408452#5" to="562709015#4" type="car"/>
    <trip id="ca_321" depart="536.07" from="-118672444#4" to="964171425#0" type="car"/>
    <trip id="ca_322" depart="537.74" from="828724799#0" to="1280614485" type="car"/>
    <trip id="ca_323" depart="539.41" from="695496042#1" to="-828724705#1" type="car"/>
    <trip id="ca_324" depart="541.08" from="828678741#1" to="695295268" type="car"/>
    <trip id="ca_325" depart="542.75" from="689583171#0" to="408161670#24" type="car"/>
    <trip id="ca_326" depart="544.42" from="302751284#0" to="1280219261" type="car"/>
    <trip id="ca_327" depart="546.09" from="-343236557#0" to="302739240#4" type="car"/>
    <trip id="ca_328" depart="547.76" from="-372466114#0" to="561667993" type="car"/>
    <trip id="ca_329" depart="549.43" from="693885802#2" to="1280219250" type="car"/>
    <trip id="ca_330" depart="551.10" from="-1255581684" to="-695446623#1" type="car"/>
    <trip id="ca_331" depart="552.77" from="371909428" to="693885804#2" type="car"/>
    <trip id="ca_332" depart="554.44" from="1282715056" to="1034028678" type="car"/>