<?xml version="1.0" encoding="UTF-8"?>

<!-- generated on 2026-03-20 21:20:28.059397 by Eclipse SUMO randomTrips.py v1_26_0+0000-fa7df22d7f1
<configuration>
    <net-file value="D:\WeSaveTime-ASEAN\sumo\danang\danang.net.xml"/>
    <additional-files value="D:\WeSaveTime-ASEAN\sumo\danang\danang.vtypes.xml"/>
    <weights-prefix value="D:\WeSaveTime-ASEAN\sumo\danang\danang.weights"/>
    <output-trip-file value="D:\WeSaveTime-ASEAN\sumo\danang\danang.dv_.trips.xml"/>
    <prefix value="dv_"/>
    <trip-attributes value="type=&quot;delivery&quot;"/>
    <fringe-factor value="5"/>
    <random value="True"/>
    <remove-loops value="True"/>
    <end value="600.0"/>
    <period value="12.0"/>
</configuration>
-->

<routes xmlns:xsi="http://www.w3.org/2001/XMLSchema-instance" xsi:noNamespaceSchemaLocation="http://sumo.dlr.de/xsd/routes_file.xsd">
    <trip id="dv_0" depart="0.00" from="828678773#2" to="693885804#0" type="delivery"/>
    <trip id="dv_1" depart="12.00" from="1280089201#2" to="295408462#12" type="delivery"/>
    <trip id="dv_2" depart="24.00" from="1280219266" to="693885804#0" type="delivery"/>
    <trip id="dv_3" depart="36.00" from="828724747#0" to="1280614485" type="delivery"/>
    <trip id="dv_4" depart="48.00" from="295449627#0" to="295408452#6" type="delivery"/>
    <trip id="dv_5" depart="60.00" from="35950883#1" to="828724708" type="delivery"/>
    <trip id="dv_6" depart="72.00" from="295408461#0" to="-641436976" type="delivery"/>
    <trip id="dv_7" depart="84.00" from="828678741#0" to="828678792" type="delivery"/>
    <trip id="dv_8" depart="96.00" from="1282340739" to="693885804#0" type="delivery"/>
    <trip id="dv_9" depart="108.00" from="693416739#0" to="-828678747" type="delivery"/>
    <trip id="dv_10" depart="120.00" from="295408459#0" to="-828678867" type="delivery"/>
    <trip id="dv_11" depart="132.00" from="696169688" to="118573603#2" type="delivery"/>
    <trip id="dv_12" depart="144.00" from="676438752#3" to="295408461#1" type="delivery"/>
    <trip id="dv_13" depart="156.00" from="693885804#0" to="698936203#8" type="delivery"/>
    <trip id="dv_14" depart="168.00" from="295408462#12" to="695496039#3" type="delivery"/>
    <trip id="dv_15" depart="180.00" from="295408452#8" to="695295267#2" type="delivery"/>
    <trip id="dv_16" depart="192.00" from="1280219259#0" to="295449625#0" type="delivery"/>
    <trip id="dv_17" depart="204.00" from="694583900#0-AddedOffRampEdge" to="1034028677#1" type="delivery"/>
    <trip id="dv_18" depart="216.00" from="-118575976#1" to="964171425#5" type="delivery"/>
    <trip id="dv_19" depart="228.00" from="693416739#3" to="1418093030" type="delivery"/>
    <trip id="dv_20" depart="240.00" from="1280614504#0" to="694775628#0" type="delivery"/>
    <trip id="dv_21" depart="252.00" from="295408468#0" to="295408452#9" type="delivery"/>
    <trip id="dv_22" depart="264.00" from="295449625#0" to="295408460#2" type="delivery"/>
    <trip id="dv_23" depart="276.00" from="1280089201#0" to="295408468#4" type="delivery"/>
    <trip id="dv_24" depart="288.00" from="695025560#0" to="295449627#0" type="delivery"/>
    <trip id="dv_25" depart="300.00" from="695040552#0" to="-118570181#7" type="delivery"/>
    <trip id="dv_26" depart="312.00" from="828724766" to="-828724764#0" type="delivery"/>
    <trip id="dv_27" depart="324.00" from="-673151145#0" to="695025560#0" type="delivery"/>
    <trip id="dv_28" depart="336.00" from="695295267#2" to="199383481-AddedOnRampEdge" type="delivery"/>
    <trip id="dv_29" depart="348.00" from="694583900#0-AddedOffRampEdge" to="676494208" type="delivery"/>
    <trip id="dv_30" depart="360.00" from="295408464#0-AddedOffRampEdge" to="697200467#9" type="delivery"/>
    <trip id="dv_31" depart="372.00" from="689583171#0" to="695040105#5" type="delivery"/>
    <trip id="dv_32" depart="384.00" from="-372467083#1" to="964171425#0" type="delivery"/>
    <trip id="dv_33" depart="396.00" from="408161670#13" to="695040552#1" type="delivery"/>
    <trip id="dv_34" depart="408.00" from="-828678818" to="676489596#2" type="delivery"/>
    <trip id="dv_35" depart="420.00" from="302751284#0" to="693416427" type="delivery"/>
    <trip id="dv_36" depart="432.00" from="118673944#8" to="1280219259#0" type="delivery"/>
    <trip id="dv_37" depart="444.00" from="39368999#15" to="-35950864#23" type="delivery"/>
    <trip id="dv_38" depart="456.00" from="302751295#15" to="695040552#1" type="delivery"/>
    <trip id="dv_39" depart="468.00" from="302751284#3" to="295408461#1" type="delivery"/>
    <trip id="dv_40" depart="480.00" from="35950925#0" to="35950897#6" type="delivery"/>
    <trip id="dv_41" depart="492.00" from="910359052#7" to="39368999#11" type="delivery"/>
    <trip id="dv_42" depart="504.00" from="408161670#27" to="-35950864#22" type="delivery"/>
    <trip id="dv_43" depart="516.00" from="-302751295#9" to="295408460#2" type="delivery"/>
    <trip id="dv_44" depart="528.00" from="694598419#0" to="118570159#7" type="delivery"/>
    <trip id="dv_45" depart="540.00" from="295408452#11" to="408161672#1" type="delivery"/>
    <trip id="dv_46" depart="552.00" from="1282340717#0" to="-828678799" type="delivery"/>
    <trip id="dv_47" depart="564.00" from="118567494" to="-118570181#2" type="delivery"/>
    <trip id="dv_48" depart="576.00" from="118672299#1" to="-696715602" type="delivery"/>
    <trip id="dv_49" depart="588.00" from="1280219257#0" to="695295267#0" type="delivery"/>
</routes>
