<?xml version="1.0" encoding="UTF-8"?>

<!-- generated on 2026-03-22 01:29:04.605181 by Eclipse SUMO randomTrips.py v1_26_0+0000-fa7df22d7f1
<configuration>
    <net-file value="D:\WeSaveTime-ASEAN\sumo\danang\danang.net.xml"/>
    <additional-files value="D:\WeSaveTime-ASEAN\sumo\danang\danang.vtypes.xml"/>
    <weights-prefix value="D:\WeSaveTime-ASEAN\sumo\danang\danang.weights"/>
    <output-trip-file value="D:\WeSaveTime-ASEAN\sumo\danang\danang.ma_.trips.xml"/>
    <prefix value="ma_"/>
    <trip-attributes value="type=&quot;motorbike&quot;"/>
    <fringe-factor value="1"/>
    <random value="True"/>
    <remove-loops value="True"/>
    <end value="600.0"/>
    <period value="0.8"/>
</configuration>
-->

<routes xmlns:xsi="http://www.w3.org/2001/XMLSchema-instance" xsi:noNamespaceSchemaLocation="http://sumo.dlr.de/xsd/routes_file.xsd">
    <trip id="ma_0" depart="0.00" from="1034028675#6" to="-405113892#2" type="motorbike"/>
    <trip id="ma_1" depart="0.80" from="697200467#8" to="344692547#0" type="motorbike"/>
    <trip id="ma_2" depart="1.60" from="118570181#3" to="676451738#1" type="motorbike"/>
    <trip id="ma_3" depart="2.40" from="-302751295#4" to="1280614505#0" type="motorbike"/>
    <trip id="ma_4" depart="3.20" from="-118570168#6" to="1034028676#0" type="motorbike"/>
    <trip id="ma_5" depart="4.00" from="-118570174#0" to="964171425#2" type="motorbike"/>
    <trip id="ma_6" depart="4.80" from="-828678785#2" to="-295449645" type="motorbike"/>
    <trip id="ma_7" depart="5.60" from="562701506#1" to="-39368999#1" type="motorbike"/>
    <trip id="ma_8" depart="6.40" from="1034028675#2" to="698936203#7" type="motorbike"/>
    <trip id="ma_9" depart="7.20" from="35950897#0" to="-118570183#1" type="motorbike"/>
    <trip id="ma_10" depart="8.00" from="693885804#2" to="695502614" type="motorbike"/>
    <trip id="ma_11" depart="8.80" from="828678822#0" to="698051272" type="motorbike"/>
    <trip id="ma_12" depart="9.60" from="295408452#10" to="-35950942#0" type="motorbike"/>
    <trip id="ma_13" depart="10.40" from="695295267#0" to="697200467#4" type="motorbike"/>
    <trip id="ma_14" depart="11.20" from="1034028677#1" to="1210918872#0" type="motorbike"/>
    <trip id="ma_15" depart="12.00" from="693885804#2" to="408161670#28" type="motorbike"/>
    <trip id="ma_16" depart="12.80" from="695040105#5" to="694600787" type="motorbike"/>
    <trip id="ma_17" depart="13.60" from="1280219266" to="405962816#0" type="motorbike"/>
    <trip id="ma_18" depart="14.40" from="695295267#0" to="695502611#0" type="motorbike"/>
    <trip id="ma_19" depart="15.20" from="1279915921" to="39368999#16" type="motorbike"/>
    <trip id="ma_20" depart="16.00" from="693885804#2" to="828724777#0" type="motorbike"/>
    <trip id="ma_21" depart="16.80" from="295408452#1" to="-698936202#1" type="motorbike"/>
    <trip id="ma_22" depart="17.60" from="372466122#1" to="-118673892#1" type="motorbike"/>
    <trip id="ma_23" depart="18.40" from="295408468#0" to="1210918873#0" type="motorbike"/>
    <trip id="ma_24" depart="19.20" from="-828724767#0" to="697200467#9" type="motorbike"/>
    <trip id="ma_25" depart="20.00" from="641092778" to="-673151181" type="motorbike"/>
    <trip id="ma_26" depart="20.80" from="295408452#7" to="1280219259#1" type="motorbike"/>
    <trip id="ma_27" depart="21.60" from="964171425#3" to="694600787" type="motorbike"/>
    <trip id="ma_28" depart="22.40" from="673151145#1" to="35950882#10" type="motorbike"/>
    <trip id="ma_29" depart="23.20" from="695510007#0" to="676453138#1" type="motorbike"/>
    <trip id="ma_30" depart="24.00" from="-372467078#4" to="372464937#1" type="motorbike"/>
    <trip id="ma_31" depart="24.80" from="-828678813" to="-1445913016" type="motorbike"/>
    <trip id="ma_32" depart="25.60" from="696755556#1" to="295449629#2" type="motorbike"/>
    <trip id="ma_33" depart="26.40" from="295408461#1" to="779462187#1" type="motorbike"/>
    <trip id="ma_34" depart="27.20" from="-302751295#10" to="695496042#2" type="motorbike"/>
    <trip id="ma_35" depart="28.00" from="695025562#1" to="1282340719" type="motorbike"/>
    <trip id="ma_36" depart="28.80" from="295449627#5" to="199383481" type="motorbike"/>
    <trip id="ma_37" depart="29.60" from="295408459#1" to="697200467#4" type="motorbike"/>
    <trip id="ma_38" depart="30.40" from="561913438#3" to="-828678818" type="motorbike"/>
    <trip id="ma_39" depart="31.20" from="118688839#4" to="35950897#0" type="motorbike"/>
    <trip id="ma_40" depart="32.00" from="372220804#23" to="-562709015#4" type="motorbike"/>
    <trip id="ma_41" depart="32.80" from="295386152#1" to="676465938#0" type="motorbike"/>
    <trip id="ma_42" depart="33.60" from="695504114#4" to="562701506#0" type="motorbike"/>
    <trip id="ma_43" depart="34.40" from="118570159#7" to="694600787" type="motorbike"/>
    <trip id="ma_44" depart="35.20" from="-39368999#15" to="694774375#0" type="motorbike"/>
    <trip id="ma_45" depart="36.00" from="1391330069#0" to="695496039#3" type="motorbike"/>
    <trip id="ma_46" depart="36.80" from="-696701808" to="694600787" type="motorbike"/>
    <trip id="ma_47" depart="37.60" from="694583900#0-AddedOffRampEdge" to="302739239#0" type="motorbike"/>
    <trip id="ma_48" depart="38.40" from="1280219260#1" to="-828724682" type="motorbike"/>
    <trip id="ma_49" depart="39.20" from="372467080" to="295408468#5" type="motorbike"/>
    <trip id="ma_50" depart="40.00" from="828724779#1" to="408161670#27" type="motorbike"/>
    <trip id="ma_51" depart="40.80" from="1282340736" to="895449538" type="motorbike"/>
    <trip id="ma_52" depart="41.60" from="-828724751" to="642360965#1" type="motorbike"/>
    <trip id="ma_53" depart="42.40" from="1280219260#0" to="562701506#0" type="motorbike"/>
    <trip id="ma_54" depart="43.20" from="118570181#3" to="693885804#0" type="motorbike"/>
    <trip id="ma_55" depart="44.00" from="697200467#11" to="695490086#1" type="motorbike"/>
    <trip id="ma_56" depart="44.80" from="-704621733#0" to="828724695" type="motorbike"/>
    <trip id="ma_57" depart="45.60" from="-895430059" to="-828724756#0" type="motorbike"/>
    <trip id="ma_58" depart="46.40" from="-39368999#3" to="302739240#4" type="motorbike"/>
    <trip id="ma_59" depart="47.20" from="295408452#16-AddedOffRampEdge" to="295408468#0" type="motorbike"/>
    <trip id="ma_60" depart="48.00" from="118567892" to="695496039#0" type="motorbike"/>
    <trip id="ma_61" depart="48.80" from="372464937#2" to="-39368999#20" type="motorbike"/>
    <trip id="ma_62" depart="49.60" from="35950897#0" to="-118688839#6" type="motorbike"/>
    <trip id="ma_63" depart="50.40" from="-35950864#23" to="408161670#0" type="motorbike"/>
    <trip id="ma_64" depart="51.20" from="1280614504#2" to="408161670#17" type="motorbike"/>
    <trip id="ma_65" depart="52.00" from="697200467#4" to="695496039#1" type="motorbike"/>
    <trip id="ma_66" depart="52.80" from="695027208" to="1280089201#1" type="motorbike"/>
    <trip id="ma_67" depart="53.60" from="295408452#10" to="-828678779#0" type="motorbike"/>
    <trip id="ma_68" depart="54.40" from="302751284#3" to="-828678775" type="motorbike"/>
    <trip id="ma_69" depart="55.20" from="697200467#4-AddedOffRampEdge" to="295408452#16-AddedOffRampEdge" type="motorbike"/>
    <trip id="ma_70" depart="56.00" from="343417844#0" to="828678749#0" type="motorbike"/>
    <trip id="ma_71" depart="56.80" from="673151142#2" to="695295267#2" type="motorbike"/>
    <trip id="ma_72" depart="57.60" from="1034028675#2" to="302751282" type="motorbike"/>
    <trip id="ma_73" depart="58.40" from="693885803#27" to="118570172#0" type="motorbike"/>
    <trip id="ma_74" depart="59.20" from="408161670#23" to="-828395782" type="motorbike"/>
    <trip id="ma_75" depart="60.00" from="828724731" to="828678873" type="motorbike"/>
    <trip id="ma_76" depart="60.80" from="641092779" to="697200467#4" type="motorbike"/>
    <trip id="ma_77" depart="61.60" from="693416739#0" to="695429325#1" type="motorbike"/>
    <trip id="ma_78" depart="62.40" from="-828678779#0" to="1280219265" type="motorbike"/>
    <trip id="ma_79" depart="63.20" from="694601892" to="1034028677#1" type="motorbike"/>
    <trip id="ma_80" depart="64.00" from="561667994#0" to="697822848#3" type="motorbike"/>
    <trip id="ma_81" depart="64.80" from="694583900#0" to="-321069049#0" type="motorbike"/>
    <trip id="ma_82" depart="65.60" from="-35950868#26" to="295408468#6" type="motorbike"/>
    <trip id="ma_83" depart="66.40" from="1279915900#0" to="35950897#0" type="motorbike"/>
    <trip id="ma_84" depart="67.20" from="295386152#8" to="-118570151#3" type="motorbike"/>
    <trip id="ma_85" depart="68.00" from="-694737115#1" to="695446623#1" type="motorbike"/>
    <trip id="ma_86" depart="68.80" from="295449625#1" to="-39368999#2" type="motorbike"/>
    <trip id="ma_87" depart="69.60" from="689583171#15" to="295449627#5" type="motorbike"/>
    <trip id="ma_88" depart="70.40" from="828724758#1" to="372466118" type="motorbike"/>
    <trip id="ma_89" depart="71.20" from="695496042#2" to="295408452#7" type="motorbike"/>
    <trip id="ma_90" depart="72.00" from="321069035#3" to="408161670#22" type="motorbike"/>
    <trip id="ma_91" depart="72.80" from="295408459#4" to="35950868#26" type="motorbike"/>
    <trip id="ma_92" depart="73.60" from="295408468#6" to="302751295#12" type="motorbike"/>
    <trip id="ma_93" depart="74.40" from="1426764507#0" to="-118673944#1" type="motorbike"/>
    <trip id="ma_94" depart="75.20" from="560329314" to="695504114#1" type="motorbike"/>
    <trip id="ma_95" depart="76.00" from="1387292390#2" to="302739239#0" type="motorbike"/>
    <trip id="ma_96" depart="76.80" from="-39368999#0" to="1280219260#0" type="motorbike"/>
    <trip id="ma_97" depart="77.60" from="321069049#0" to="256672293" type="motorbike"/>
    <trip id="ma_98" depart="78.40" from="831070297#1" to="-343236557#1" type="motorbike"/>
    <trip id="ma_99" depart="79.20" from="1280614504#0" to="-118575973#1" type="motorbike"/>
    <trip id="ma_100" depart="80.00" from="-828678798#1" to="295408452#16-AddedOffRampEdge" type="motorbike"/>
    <trip id="ma_101" depart="80.80" from="1279915895#1" to="118672612#1" type="motorbike"/>
    <trip id="ma_102" depart="81.60" from="695496039#3" to="295408468#5" type="motorbike"/>
    <trip id="ma_103" depart="82.40" from="295408468#4" to="-828678901" type="motorbike"/>
    <trip id="ma_104" depart="83.20" from="698046188#1" to="35950897#10" type="motorbike"/>
    <trip id="ma_105" depart="84.00" from="695504114#4" to="1034028677#1" type="motorbike"/>
    <trip id="ma_106" depart="84.80" from="295449629#1" to="695025560#0" type="motorbike"/>
    <trip id="ma_107" depart="85.60" from="295408459#1" to="-828395782" type="motorbike"/>
    <trip id="ma_108" depart="86.40" from="39368999#13" to="-372589135#1" type="motorbike"/>
    <trip id="ma_109" depart="87.20" from="695040105#3" to="828724768#2" type="motorbike"/>
    <trip id="ma_110" depart="88.00" from="693416427" to="-828678770" type="motorbike"/>
    <trip id="ma_111" depart="88.80" from="-641106174" to="828724725#0" type="motorbike"/>
    <trip id="ma_112" depart="89.60" from="1034028677#0" to="295408452#1" type="motorbike"/>
    <trip id="ma_113" depart="90.40" from="35950897#0" to="673151142#5" type="motorbike"/>
    <trip id="ma_114" depart="91.20" from="-295449622#1" to="828678745#1" type="motorbike"/>
    <trip id="ma_115" depart="92.00" from="828724757#0" to="1076293830#1" type="motorbike"/>
    <trip id="ma_116" depart="92.80" from="695025560#0" to="372589135#1" type="motorbike"/>
    <trip id="ma_117" depart="93.60" from="695496039#2" to="1034028676#0" type="motorbike"/>
    <trip id="ma_118" depart="94.40" from="295408459#0" to="828678860#0" type="motorbike"/>
    <trip id="ma_119" depart="95.20" from="1280219265" to="1034027336#0" type="motorbike"/>
    <trip id="ma_120" depart="96.00" from="910359052#0" to="408161670#21" type="motorbike"/>
    <trip id="ma_121" depart="96.80" from="118672606#7" to="695446625#0" type="motorbike"/>
    <trip id="ma_122" depart="97.60" from="695496042#2" to="676438753#1" type="motorbike"/>
    <trip id="ma_123" depart="98.40" from="-642098832#0" to="295408460#3" type="motorbike"/>
    <trip id="ma_124" depart="99.20" from="1210918872#0" to="35950897#15" type="motorbike"/>
    <trip id="ma_125" depart="100.00" from="694598419#1" to="642050078#1" type="motorbike"/>
    <trip id="ma_126" depart="100.80" from="-676461674" to="1280219260#0" type="motorbike"/>
    <trip id="ma_127" depart="101.60" from="118567886#0" to="695496039#0" type="motorbike"/>
    <trip id="ma_128" depart="102.40" from="118575972#5" to="695496040" type="motorbike"/>
    <trip id="ma_129" depart="103.20" from="295408459#0" to="-828724725#0" type="motorbike"/>
    <trip id="ma_130" depart="104.00" from="1282340736" to="693885804#0" type="motorbike"/>
    <trip id="ma_131" depart="104.80" from="295408468#5" to="694775628#0" type="motorbike"/>
    <trip id="ma_132" depart="105.60" from="1282340718" to="408161670#13" type="motorbike"/>
    <trip id="ma_133" depart="106.40" from="695295267#2" to="408161670#17" type="motorbike"/>
    <trip id="ma_134" depart="107.20" from="694772625#0" to="1280089201#2" type="motorbike"/>
    <trip id="ma_135" depart="108.00" from="697822848#3" to="-828724763#2" type="motorbike"/>
    <trip id="ma_136" depart="108.80" from="-828724744" to="-1282340733#1" type="motorbike"/>
    <trip id="ma_137" depart="109.60" from="697200467#0" to="694600787" type="motorbike"/>
    <trip id="ma_138" depart="110.40" from="-828724758#1" to="405962816#0" type="motorbike"/>
    <trip id="ma_139" depart="111.20" from="828678817#3" to="408161670#20" type="motorbike"/>
    <trip id="ma_140" depart="112.00" from="-35950868#4" to="408161670#25" type="motorbike"/>
    <trip id="ma_141" depart="112.80" from="694774375#0" to="118575972#1" type="motorbike"/>
    <trip id="ma_142" depart="113.60" from="910359052#0" to="-372220804#31" type="motorbike"/>
    <trip id="ma_143" depart="114.40" from="372466114#3" to="118570164#1" type="motorbike"/>
    <trip id="ma_144" depart="115.20" from="-641466470" to="695295267#2" type="motorbike"/>
    <trip id="ma_145" depart="116.00" from="697200467#0" to="295408465#1" type="motorbike"/>
    <trip id="ma_146" depart="116.80" from="-828724767#0" to="300949142#0" type="motorbike"/>
    <trip id="ma_147" depart="117.60" from="408161670#27" to="-35950864#23" type="motorbike"/>
    <trip id="ma_148" depart="118.40" from="695490086#1" to="35950864#23" type="motorbike"/>
    <trip id="ma_149" depart="119.20" from="-828724683" to="39368999#13" type="motorbike"/>
    <trip id="ma_150" depart="120.00" from="-405962816#0" to="295408465#2-AddedOnRampEdge" type="motorbike"/>
    <trip id="ma_151" depart="120.80" from="160628085#1" to="-118575972#6" type="motorbike"/>
    <trip id="ma_152" depart="121.60" from="302751284#0" to="-641397117" type="motorbike"/>
    <trip id="ma_153" depart="122.40" from="-118575974#4" to="-560329291#0" type="motorbike"/>
    <trip id="ma_154" depart="123.20" from="910359052#8" to="35950897#1" type="motorbike"/>
    <trip id="ma_155" depart="124.00" from="295408452#7" to="1280219260#0" type="motorbike"/>
    <trip id="ma_156" depart="124.80" from="118673907" to="118570169#2" type="motorbike"/>
    <trip id="ma_157" depart="125.60" from="1282340739" to="695496039#0" type="motorbike"/>
    <trip id="ma_158" depart="126.40" from="828678777#1" to="1279915895#1" type="motorbike"/>
    <trip id="ma_159" depart="127.20" from="-118570164#5" to="695446625#0" type="motorbike"/>
    <trip id="ma_160" depart="128.00" from="673151142#2" to="695496039#1" type="motorbike"/>
    <trip id="ma_161" depart="128.80" from="1034028676#1" to="1392384124" type="motorbike"/>
    <trip id="ma_162" depart="129.60" from="295408460#3" to="302751282-AddedOnRampEdge" type="motorbike"/>
    <trip id="ma_163" depart="130.40" from="695295267#0" to="695504114#0" type="motorbike"/>
    <trip id="ma_164" depart="131.20" from="-696755556#0" to="295449627#4" type="motorbike"/>
    <trip id="ma_165" depart="132.00" from="-561667994#1" to="1282340717#2" type="motorbike"/>
    <trip id="ma_166" depart="132.80" from="-39368999#20" to="828724795#1" type="motorbike"/>
    <trip id="ma_167" depart="133.60" from="561474227#0" to="295408452#6" type="motorbike"/>
    <trip id="ma_168" depart="134.40" from="343417844#0" to="696168834#0" type="motorbike"/>
    <trip id="ma_169" depart="135.20" from="408161670#20" to="964171425#0" type="motorbike"/>
    <trip id="ma_170" depart="136.00" from="35950897#15" to="562709015#1" type="motorbike"/>
    <trip id="ma_171" depart="136.80" from="-372220804#33" to="695295268" type="motorbike"/>
    <trip id="ma_172" depart="137.60" from="300947940" to="295408452#1" type="motorbike"/>
    <trip id="ma_173" depart="138.40" from="-35950868#6" to="35950868#21" type="motorbike"/>
    <trip id="ma_174" depart="139.20" from="408161670#13" to="1280089201#0" type="motorbike"/>
    <trip id="ma_175" depart="140.00" from="35950925#1" to="-828724724#1" type="motorbike"/>
    <trip id="ma_176" depart="140.80" from="-828724768#2" to="695025559" type="motorbike"/>
    <trip id="ma_177" depart="141.60" from="-118570168#1" to="118673913#4" type="motorbike"/>
    <trip id="ma_178" depart="142.40" from="-673151198#3" to="-405962811#1" type="motorbike"/>
    <trip id="ma_179" depart="143.20" from="-1279915898#3" to="-828724724#1" type="motorbike"/>
    <trip id="ma_180" depart="144.00" from="-828724682" to="695544823" type="motorbike"/>
    <trip id="ma_181" depart="144.80" from="694830395#0" to="302751282-AddedOnRampEdge" type="motorbike"/>
    <trip id="ma_182" depart="145.60" from="1280614485" to="-372220804#2" type="motorbike"/>
    <trip id="ma_183" depart="146.40" from="-372467084#2" to="-828678821#1" type="motorbike"/>
    <trip id="ma_184" depart="147.20" from="695490086#1" to="-118673944#1" type="motorbike"/>
    <trip id="ma_185" depart="148.00" from="697200467#8" to="1280089222" type="motorbike"/>
    <trip id="ma_186" depart="148.80" from="828678819" to="-372220804#15" type="motorbike"/>
    <trip id="ma_187" depart="149.60" from="964171425#2" to="695446625#0" type="motorbike"/>
    <trip id="ma_188" depart="150.40" from="828724756#1" to="693885803#17" type="motorbike"/>
    <trip id="ma_189" depart="151.20" from="695040552#1" to="695295267#0" type="motorbike"/>
    <trip id="ma_190" depart="152.00" from="-694737115#1" to="-39368999#8" type="motorbike"/>
    <trip id="ma_191" depart="152.80" from="1280219259#1" to="-118567495" type="motorbike"/>
    <trip id="ma_192" depart="153.60" from="-828678858" to="408161670#16" type="motorbike"/>
    <trip id="ma_193" depart="154.40" from="-35950868#21" to="828724820" type="motorbike"/>
    <trip id="ma_194" depart="155.20" from="695496042#1" to="695025562#1" type="motorbike"/>
    <trip id="ma_195" depart="156.00" from="-1379125025" to="118672606#1" type="motorbike"/>
    <trip id="ma_196" depart="156.80" from="295408463#0" to="1282340719" type="motorbike"/>
    <trip id="ma_197" depart="157.60" from="1034027336#0" to="694772625#0" type="motorbike"/>
    <trip id="ma_198" depart="158.40" from="1280219257#1" to="-676509072#2" type="motorbike"/>
    <trip id="ma_199" depart="159.20" from="1280089201#2" to="-35950868#35" type="motorbike"/>
    <trip id="ma_200" depart="160.00" from="694775628#2" to="408161670#13" type="motorbike"/>
    <trip id="ma_201" depart="160.80" from="828678793#0" to="-828678798#0" type="motorbike"/>
    <trip id="ma_202" depart="161.60" from="35950897#15" to="695502611#1" type="motorbike"/>
    <trip id="ma_203" depart="162.40" from="295408459#7" to="694774375#0" type="motorbike"/>
    <trip id="ma_204" depart="163.20" from="910359052#0" to="-676458405#0" type="motorbike"/>
    <trip id="ma_205" depart="164.00" from="295408452#11" to="673151142#2" type="motorbike"/>
    <trip id="ma_206" depart="164.80" from="828678868" to="697200467#8" type="motorbike"/>
    <trip id="ma_207" depart="165.60" from="828678820" to="35950897#1" type="motorbike"/>
    <trip id="ma_208" depart="166.40" from="-698936202#1" to="964171425#0" type="motorbike"/>
    <trip id="ma_209" depart="167.20" from="1280614485" to="695446623#0" type="motorbike"/>
    <trip id="ma_210" depart="168.00" from="-300949141" to="-828678867" type="motorbike"/>
    <trip id="ma_211" depart="168.80" from="1210918873#0" to="295408465#0" type="motorbike"/>
    <trip id="ma_212" depart="169.60" from="697200467#4-AddedOffRampEdge" to="-828724700#3" type="motorbike"/>
    <trip id="ma_213" depart="170.40" from="673151142#4" to="35950882#11" type="motorbike"/>
    <trip id="ma_214" depart="171.20" from="641397122#1" to="695446625#0" type="motorbike"/>
    <trip id="ma_215" depart="172.00" from="695496039#2" to="910359052#5" type="motorbike"/>
    <trip id="ma_216" depart="172.80" from="-828678869#0" to="-828724775" type="motorbike"/>
    <trip id="ma_217" depart="173.60" from="695502613" to="-697822848#3" type="motorbike"/>
    <trip id="ma_218" depart="174.40" from="-372466117#3" to="-405962816#0" type="motorbike"/>
    <trip id="ma_219" depart="175.20" from="676450959" to="1280219260#1" type="motorbike"/>
    <trip id="ma_220" depart="176.00" from="696169687#1" to="696168834#0" type="motorbike"/>
    <trip id="ma_221" depart="176.80" from="-321069035#0" to="-118672444#1" type="motorbike"/>
    <trip id="ma_222" depart="177.60" from="696169688" to="1210918872#1" type="motorbike"/>
    <trip id="ma_223" depart="178.40" from="694600787" to="-828678826#0" type="motorbike"/>
    <trip id="ma_224" depart="179.20" from="-641397124" to="295408462#10" type="motorbike"/>
    <trip id="ma_225" depart="180.00" from="693416739#3" to="295408452#16-AddedOffRampEdge" type="motorbike"/>
    <trip id="ma_226" depart="180.80" from="695295267#0" to="35950942#0" type="motorbike"/>
    <trip id="ma_227" depart="181.60" from="118570169#2" to="695027208" type="motorbike"/>
    <trip id="ma_228" depart="182.40" from="695496042#2" to="693885804#0" type="motorbike"/>
    <trip id="ma_229" depart="183.20" from="372467084#1" to="-118570174#2" type="motorbike"/>
    <trip id="ma_230" depart="184.00" from="-561474244" to="-372464935#2" type="motorbike"/>
    <trip id="ma_231" depart="184.80" from="295408452#8" to="-118672444#1" type="motorbike"/>
    <trip id="ma_232" depart="185.60" from="696991611#2" to="695496039#0" type="motorbike"/>
    <trip id="ma_233" depart="186.40" from="693885804#0" to="118672444#2" type="motorbike"/>
    <trip id="ma_234" depart="187.20" from="-828724756#1" to="-118673947#0" type="motorbike"/>
    <trip id="ma_235" depart="188.00" from="408161670#16" to="697200467#7" type="motorbike"/>
    <trip id="ma_236" depart="188.80" from="828678794#0" to="910359052#8" type="motorbike"/>
    <trip id="ma_237" depart="189.60" from="694598419#0" to="1280219250" type="motorbike"/>
    <trip id="ma_238" depart="190.40" from="1034028677#0" to="964171425#2" type="motorbike"/>
    <trip id="ma_239" depart="191.20" from="-663749308#1" to="1280614505#0" type="motorbike"/>
    <trip id="ma_240" depart="192.00" from="1282340737" to="302751282-AddedOnRampEdge" type="motorbike"/>
    <trip id="ma_241" depart="192.80" from="-828724745" to="408161670#0" type="motorbike"/>
    <trip id="ma_242" depart="193.60" from="35950868#26" to="694738596" type="motorbike"/>
    <trip id="ma_243" depart="194.40" from="-673151200#0" to="118566872#3" type="motorbike"/>
    <trip id="ma_244" depart="195.20" from="118566873#0" to="695496039#1" type="motorbike"/>
    <trip id="ma_245" depart="196.00" from="-372467090#0" to="118672619#4" type="motorbike"/>
    <trip id="ma_246" depart="196.80" from="118575976#0" to="-302751295#14" type="motorbike"/>
    <trip id="ma_247" depart="197.60" from="118570168#0" to="828395782" type="motorbike"/>
    <trip id="ma_248" depart="198.40" from="295408459#5" to="295408462#10" type="motorbike"/>
    <trip id="ma_249" depart="199.20" from="118566872#2" to="35950925#3" type="motorbike"/>
    <trip id="ma_250" depart="200.00" from="-642354268#3" to="676712671" type="motorbike"/>
    <trip id="ma_251" depart="200.80" from="118570183#3" to="302751295#17" type="motorbike"/>
    <trip id="ma_252" depart="201.60" from="35950897#10" to="295408461#1" type="motorbike"/>
    <trip id="ma_253" depart="202.40" from="-676450958#0" to="-828678810#4" type="motorbike"/>
    <trip id="ma_254" depart="203.20" from="1426764507#2" to="1280219257#1" type="motorbike"/>
    <trip id="ma_255" depart="204.00" from="-642086910" to="1355319664" type="motorbike"/>
    <trip id="ma_256" depart="204.80" from="1282340739" to="695025560#1" type="motorbike"/>
    <trip id="ma_257" depart="205.60" from="1280219260#0" to="295394152#0" type="motorbike"/>
    <trip id="ma_258" depart="206.40" from="697200467#0" to="-118672619#3" type="motorbike"/>
    <trip id="ma_259" depart="207.20" from="828678912#1" to="561971012" type="motorbike"/>
    <trip id="ma_260" depart="208.00" from="1280219267" to="295408462#8" type="motorbike"/>
    <trip id="ma_261" depart="208.80" from="160628085#0" to="372220804#28" type="motorbike"/>
    <trip id="ma_262" depart="209.60" from="-828724731" to="1418093030" type="motorbike"/>
    <trip id="ma_263" depart="210.40" from="695496039#1" to="1034028676#2" type="motorbike"/>
    <trip id="ma_264" depart="211.20" from="1280089201#1" to="-35950868#38" type="motorbike"/>
    <trip id="ma_265" depart="212.00" from="910359052#7" to="1280219265" type="motorbike"/>
    <trip id="ma_266" depart="212.80" from="695295268" to="-118570181#7" type="motorbike"/>
    <trip id="ma_267" depart="213.60" from="-118570164#6" to="-562701508" type="motorbike"/>
    <trip id="ma_268" depart="214.40" from="694775628#0" to="693885804#2" type="motorbike"/>
    <trip id="ma_269" depart="215.20" from="-405962812#2" to="35950868#30" type="motorbike"/>
    <trip id="ma_270" depart="216.00" from="300949144#1" to="1282340736" type="motorbike"/>
    <trip id="ma_271" depart="216.80" from="910359052#0" to="-828678828" type="motorbike"/>
    <trip id="ma_272" depart="217.60" from="910359052#8" to="693885803#17" type="motorbike"/>
    <trip id="ma_273" depart="218.40" from="295408461#1" to="694715299#1" type="motorbike"/>
    <trip id="ma_274" depart="219.20" from="828724796" to="696168834#0" type="motorbike"/>
    <trip id="ma_275" depart="220.00" from="-35950959#3" to="641397122#0" type="motorbike"/>
    <trip id="ma_276" depart="220.80" from="1280219259#1" to="910359052#9" type="motorbike"/>
    <trip id="ma_277" depart="221.60" from="35950897#0" to="-35950864#2" type="motorbike"/>
    <trip id="ma_278" depart="222.40" from="560329314" to="695295265#0" type="motorbike"/>
    <trip id="ma_279" depart="223.20" from="694772625#0" to="1280219257#1" type="motorbike"/>
    <trip id="ma_280" depart="224.00" from="-118570168#8" to="695502611#1" type="motorbike"/>
    <trip id="ma_281" depart="224.80" from="694583900#0" to="300949144#1" type="motorbike"/>
    <trip id="ma_282" depart="225.60" from="405113894" to="562701502#4" type="motorbike"/>
    <trip id="ma_283" depart="226.40" from="295408462#10" to="694598419#0" type="motorbike"/>
    <trip id="ma_284" depart="227.20" from="-372466120#0" to="-828678814#7" type="motorbike"/>
    <trip id="ma_285" depart="228.00" from="-344692547#3" to="199383481" type="motorbike"/>
    <trip id="ma_286" depart="228.80" from="1034027336#1" to="199383481-AddedOnRampEdge" type="motorbike"/>
    <trip id="ma_287" depart="229.60" from="828678836" to="-118673919#0" type="motorbike"/>
    <trip id="ma_288" depart="230.40" from="295408462#10" to="295408465#0" type="motorbike"/>
    <trip id="ma_289" depart="231.20" from="118575965" to="-39368999#21" type="motorbike"/>
    <trip id="ma_290" depart="232.00" from="694830396" to="694598419#1-AddedOnRampEdge" type="motorbike"/>
    <trip id="ma_291" depart="232.80" from="1210918873#0" to="964171425#0" type="motorbike"/>
    <trip id="ma_292" depart="233.60" from="641397122#1" to="-828724745" type="motorbike"/>
    <trip id="ma_293" depart="234.40" from="295408459#4" to="1034028676#1" type="motorbike"/>
    <trip id="ma_294" depart="235.20" from="694767769" to="694601892" type="motorbike"/>
    <trip id="ma_295" depart="236.00" from="643237807#0" to="1391330070#0" type="motorbike"/>
    <trip id="ma_296" depart="236.80" from="1034028677#1" to="39368999#2" type="motorbike"/>
    <trip id="ma_297" depart="237.60" from="-39354228#6" to="295408468#0" type="motorbike"/>
    <trip id="ma_298" depart="238.40" from="-828724795#1" to="641109023#2" type="motorbike"/>
    <trip id="ma_299" depart="239.20" from="118672607#1" to="695025562#1" type="motorbike"/>
    <trip id="ma_300" depart="240.00" from="1458964293" to="697200467#11" type="motorbike"/>
    <trip id="ma_301" depart="240.80" from="-1446429434#1" to="295408459#7" type="motorbike"/>
    <trip id="ma_302" depart="241.60" from="-1379125025" to="-1446429434#1" type="motorbike"/>
    <trip id="ma_303" depart="242.40" from="35950897#0" to="1279915895#1" type="motorbike"/>
    <trip id="ma_304" depart="243.20" from="-118688839#0" to="-562701508" type="motorbike"/>
    <trip id="ma_305" depart="244.00" from="695295268" to="295408452#9" type="motorbike"/>
    <trip id="ma_306" depart="244.80" from="408161670#28" to="695502611#1" type="motorbike"/>
    <trip id="ma_307" depart="245.60" from="35950868#0" to="694600787" type="motorbike"/>
    <trip id="ma_308" depart="246.40" from="295449625#1" to="1426764507#2" type="motorbike"/>
    <trip id="ma_309" depart="247.20" from="1210918872#1" to="295408468#0" type="motorbike"/>
    <trip id="ma_310" depart="248.00" from="1282340731" to="964171425#0" type="motorbike"/>
    <trip id="ma_311" depart="248.80" from="-828724725#2" to="-828724751" type="motorbike"/>
    <trip id="ma_312" depart="249.60" from="694600787" to="295408461#4" type="motorbike"/>