<?xml version='1.0' encoding='utf-8'?>
<routes xmlns:xsi="http://www.w3.org/2001/XMLSchema-instance" xsi:noNamespaceSchemaLocation="http://sumo.dlr.de/xsd/routes_file.xsd">
    <vType id="motorbike" length="2.20" maxSpeed="11.11" speedFactor="normc(1.00,0.15,0.20,2.00)" vClass="motorcycle" guiShape="motorcycle" width="0.80" color="230,179,51" accel="3.0" decel="4.5" sigma="0.7" />
    <vehicle id="ma_0" type="motorbike" depart="0.00">
        <route edges="302751295#1 -372464937#5 -372464937#4 -372464937#1 -372464937#0 118672608#3 -118672619#3 -118672619#2 -118672619#1 -118672619#0 118672607#3 118672607#4 118672607#5 -828724762 -828724763#3 -828724763#2 -828724764#1 828724757#0 828724757#1" />
    </vehicle>
    <vType id="motorbike2" length="2.00" maxSpeed="12.50" speedFactor="normc(1.10,0.20,0.20,2.00)" vClass="motorcycle" guiShape="motorcycle" width="0.70" color="51,153,230" accel="3.5" decel="5.0" sigma="0.8" />
    <vType id="car" length="4.50" maxSpeed="13.89" speedFactor="normc(1.00,0.10,0.20,2.00)" vClass="passenger" guiShape="passenger" width="1.80" color="51,153,230" accel="2.5" decel="4.0" sigma="0.5" />
    <vType id="car_suv" length="4.80" maxSpeed="13.89" speedFactor="normc(1.00,0.10,0.20,2.00)" vClass="passenger" guiShape="passenger/sedan" width="2.00" color="204,51,51" accel="2.2" decel="3.8" sigma="0.5" />
    <vehicle id="sv_0" type="car_suv" depart="0.00">
        <route edges="1282340736 160628085#0 160628085#1 160628085#2 1280089222 1280089201#0 295408452#0 295408452#1 295408452#5 295408452#6 295408452#7 295408452#8 295408452#9 -302751295#23 -302751295#22 -302751295#21 -302751295#20 -302751295#18 -302751295#16 -302751295#14 -302751295#12 -302751295#11 -302751295#10 -302751295#9 -302751295#8 -302751295#7 -302751295#6 -302751295#5 -302751295#4 -302751295#3 -302751295#2 -302751295#1 -302751295#0 -1279915898#9 -1279915898#8 -1279915898#5 -1279915898#3 -1279915898#1 -765351891#4 -765351891#3 -765351891#0 118575968#0 118575968#2 302751284#0 302751284#3 673151142#2 673151142#3 673151142#4 673151142#5" />
    </vehicle>
    <vType id="taxi" length="4.50" maxSpeed="13.89" speedFactor="normc(0.90,0.10,0.20,2.00)" vClass="passenger" guiShape="passenger/sedan" width="1.80" color="255,255,51" accel="2.5" decel="4.0" sigma="0.4" />
    <vType id="bus" length="12.00" maxSpeed="11.11" speedFactor="normc(0.80,0.05,0.20,2.00)" vClass="bus" guiShape="bus" width="2.50" color="51,204,77" accel="1.5" decel="3.0" sigma="0.4" />
    <vType id="truck" length="10.00" maxSpeed="8.33" speedFactor="normc(0.70,0.10,0.20,2.00)" vClass="truck" guiShape="truck" width="2.50" color="179,77,77" accel="1.2" decel="3.0" sigma="0.4" />
    <vehicle id="tk_0" type="truck" depart="0.00">
        <route edges="300947940 -641082247 694594970#0 694600787 160628085#0 160628085#1 160628085#2 1280089222 1280089201#0 295408452#0 295408452#1 295408452#5 295408452#6 295408452#7 295408452#8 295408452#9 -302751295#23 -302751295#22 -302751295#21 -302751295#20 -302751295#18 -302751295#16 -302751295#14 -302751295#12 -302751295#11 -302751295#10 -302751295#9 -302751295#8 -302751295#7 -302751295#6 -302751295#5 -302751295#4 -302751295#3 -302751295#2 -302751295#1 -302751295#0 -1279915898#9 -1279915898#8 -1279915898#5 -1279915898#3 -1279915898#1 -765351891#4 -765351891#3 118672299#0 118672299#1 118672299#2" />
    </vehicle>
    <vType id="delivery" length="6.00" maxSpeed="11.11" speedFactor="normc(0.85,0.10,0.20,2.00)" vClass="truck" guiShape="truck" width="2.20" color="153,102,51" accel="1.8" decel="3.5" sigma="0.5" />
    <vehicle id="mx_1" type="motorbike2" depart="0.87">
        <route edges="964171425#2 964171425#3 -676458408 -118672444#1 -673151144#0 302739242#0 302739242#1 694775628#0 694775628#2 302751284#0 302751284#3 673151142#2 673151142#3 673151142#4 673151142#5 695025562#0 695025562#1 695025559 693885802#0 693885802#2 295386152#0 295386152#1 295386152#2 295386152#3 698936203#7 698936203#8 698936203#9" />
    </vehicle>
    <vehicle id="ca_1" type="car" depart="1.67">
        <route edges="697200467#8 697200467#9 697200467#10 697200467#11 1280089201#2 -694715298 -694715297 -39368999#21 -39368999#20 -39368999#16 -39368999#15 -39368999#14 -39368999#13 -39368999#12 -39368999#10 -39368999#9 -39368999#8 -39368999#5 118566872#0 118566872#1 118566872#2 118566872#3 118566872#4 118566872#5 -1387292390#1 -1387292390#0" />
    </vehicle>
    <vehicle id="ma_5" type="motorbike" depart="2.20">
        <route edges="695490086#1 643264676 695504114#0 695504114#1 695504114#4 295449627#0 295449627#2 295449627#3 295449627#4 295449627#5 698046188#1 1279915897 1282340739 695510007#0 695510007#1 295128790#0 295128790#3 295128790#4 295128790#10 1096471623#0 35950897#0 295386165 673151142#2 673151142#3 673151142#4 673151142#5 695025562#0 695025562#1" />
    </vehicle>
    <vehicle id="ma_7" type="motorbike" depart="3.08">
        <route edges="693885804#2 1426764507#0 1426764507#2 35950897#0 35950897#1 35950897#6 -118575968#5 -118575968#1 765351891#0 765351891#2 765351891#4 1279915898#0 1279915898#2 1279915898#5 1279915898#6 1279915898#9 302751295#0 302751295#1 302751295#2 302751295#3 302751295#4 302751295#5 302751295#6 302751295#7 302751295#8 302751295#9 302751295#10 302751295#11 302751295#12 372466120#0 372466120#2 561913437#3" />
    </vehicle>
    <vehicle id="ma_8" type="motorbike" depart="3.52">
        <route edges="828678875 -828678875 -372464931#1 -372464931#0 408161670#17 408161670#18 408161670#20 408161670#21 408161670#22 408161670#23 408161670#24 408161670#25 408161670#27 408161670#28 1279915898#5 1279915898#6 1279915898#9 302751295#0 302751295#1 302751295#2 302751295#3 302751295#4 302751295#5 302751295#6 302751295#7 302751295#8 35950942#0 35950942#1 35950942#2 697200467#1 697200467#4 697200467#4-AddedOffRampEdge 697200467#7 697200467#8" />
    </vehicle>
    <vehicle id="tx_1" type="taxi" depart="4.00">
        <route edges="1280089201#1 1280089201#2 1280219265 1280219261 1282340737 1282340736 160628085#0 624455965#0 -295408470#2 -295408470#1 -641487801 -321069035#2 321069049#0 321069061" />
    </vehicle>
    <vehicle id="ma_11" type="motorbike" depart="4.84">
        <route edges="1280614504#0 1280614504#1 1280614504#2 1280219250 1280219258#0 295408463#0 295408463#1 1280219260#0 1280219260#1 118570175 295408467 642086911 -35950864#30 -35950864#29 -35950864#27 -35950864#24 -35950864#23 -35950864#22 -35950864#21 -35950864#20 -35950864#18 -35950864#17 -35950864#16 -35950864#13 -35950864#7 -35950864#5 -35950864#2 -302751295#16 -302751295#14 -302751295#12 561474249#0 676467950 118672633#0 118672633#1 118672633#2 118672633#3 -561971012 561971012 -118672633#3" />
    </vehicle>
    <vehicle id="mx_6" type="motorbike2" depart="5.22">
        <route edges="673151147#0 1034028678 1034027336#0 1034027336#1 1034027336#2 1282340718 1282340717#0 1282340717#1 1282340717#2 1034028677#0 1034028677#1 1282340735 694774375#0 694775628#0 694775628#2 302751284#0 302751284#3 673151142#2 673151142#3 673151142#4 673151142#5 695025562#0 695025562#1 695025559 693885802#0 693885802#2 695030266 695033474#1 1279915895#0 295128790#4 295128790#10" />
    </vehicle>
    <vehicle id="mx_7" type="motorbike2" depart="6.09">
        <route edges="295408452#7 295408452#8 295408452#9 -302751295#23 -302751295#22 -302751295#21 -302751295#20 -302751295#18 -302751295#16 -302751295#14 -302751295#12 -302751295#11 -302751295#10 -302751295#9 -302751295#8 -302751295#7 -302751295#6 -302751295#5 -302751295#4 -302751295#3 -302751295#2 -302751295#1 -302751295#0 -35950868#38 -35950868#37 -35950868#36 -35950868#35 -35950868#33 -35950868#31 -35950868#30 -35950868#29 -35950868#28 -35950868#26 -35950868#25 -35950868#23 -35950868#22 -35950868#21 -35950868#20 -35950868#19 -35950868#18 -35950868#17 -35950868#16 -35950868#15 118573603#0 118573603#1 118573603#2 408161670#18 408161670#20" />
    </vehicle>
    <vehicle id="tk_1" type="truck" depart="6.67">
        <route edges="408161670#22 408161670#23 408161670#24 408161670#25 408161670#27 408161670#28 1279915898#5 1279915898#6 1279915898#9 302751295#0 302751295#1 302751295#2 302751295#3 302751295#4 302751295#5 302751295#6 302751295#7 302751295#8 35950942#0 35950942#1 35950942#2 697200467#1" />
    </vehicle>
    <vehicle id="mx_8" type="motorbike2" depart="6.96">
        <route edges="-35950868#31 -35950868#30 -35950868#29 -35950868#28 -35950868#26 -35950868#25 -35950868#23 -35950868#22 -35950868#21 -35950868#20 -35950868#19 -35950868#18 -35950868#17 118570159#0 118570159#3 118570159#4 118570159#6 118570159#7" />
    </vehicle>
    <vehicle id="mx_9" type="motorbike2" depart="7.83">
        <route edges="695496039#1 695496039#2 695496039#3 695502614 118673929#0 118673929#1 118673929#2 118673929#3 118673929#5 118673929#7 295408466#1 1280219259#1 1280219266 1280219260#0 1280219260#1 295408462#0 295408462#1 295408462#8 295408462#10 295408462#12 1282340737 1282340736 160628085#0 160628085#1 160628085#2 1280089222 1280089201#0 295408452#0 295408452#1 295408452#5 295408452#6 295408452#7 295408452#8 295408452#9 295408452#10 295408452#11 295408452#16 295408452#16-AddedOffRampEdge 1034028675#0 1034028675#2 1034028675#6 1034027336#2 1282340718 1282340717#0 694772625#0 1210918873#0 1392384124 693330103#2 1210918872#0" />
    </vehicle>
    <vehicle id="tx_2" type="taxi" depart="8.00">
        <route edges="828678860#2 828678860#4 118573603#1 118573603#2 408161670#18 408161670#20 408161670#21 408161670#22 408161670#23 408161670#24 408161670#25 408161670#27 408161670#28" />
    </vehicle>
    <vehicle id="mx_10" type="motorbike2" depart="8.70">
        <route edges="828678838 -828678838 35950868#7 35950868#8 35950868#9 35950868#10 35950868#11 35950868#13 35950868#14 35950868#15 35950868#16 35950868#17 35950868#18 35950868#19 35950868#20 35950868#21 35950868#22 -562701506#1 -562701506#0 408161670#23 408161670#24 -118573597 -765351891#3 118672299#0 302739239#0 302739239#1 302739239#2" />
    </vehicle>
    <vehicle id="mx_11" type="motorbike2" depart="9.57">
        <route edges="-1446429434#0 1446429434#0 1446429434#1 1446429434#2 1446429434#3 118672612#2 118672612#3 118672612#4 302751295#11 302751295#12 302751295#13 302751295#15 302751295#17 302751295#19 302751295#21 302751295#22 697200467#10 697200467#11 1280089201#2 1280219265 1280219261 1282340737 1282340736 160628085#0 160628085#1 160628085#2 1280089222 1280089201#0 295408452#0" />
    </vehicle>
    <vehicle id="ca_6" type="car" depart="10.02">
        <route edges="910359052#9 697200467#0 -35950942#2 -35950942#1 -35950942#0 -302751295#8 -302751295#7 -302751295#6 -302751295#5 -302751295#4 -302751295#3 -302751295#2 -302751295#1 -302751295#0 -1279915898#9 -1279915898#8 -1279915898#5 -1279915898#3 -1279915898#1 -765351891#4 -765351891#3 118672299#0 118672299#1 118672299#2 118672299#3 704621733#0 -1282340713#0" />
    </vehicle>
    <vehicle id="ma_24" type="motorbike" depart="10.56">
        <route edges="295408452#16 295408452#16-AddedOffRampEdge 1034028675#0 35950882#1 35950882#3 35950882#7 35950882#8 35950882#9 35950882#10 35950882#11 35950882#14 -1279915898#9 -1279915898#8 -1279915898#5 -1279915898#3 -1279915898#1 -765351891#4 -765351891#3 -765351891#0 118575968#0 118575968#2 302751284#0 302751284#3 673151142#2 673151142#3 673151142#4 673151142#5 695025562#0 695025562#1 695025559 693885802#0 693885802#2" />
    </vehicle>
    <vehicle id="ma_26" type="motorbike" depart="11.44">
        <route edges="300947940 -641082247 694594970#0 694600787 160628085#0 160628085#1 160628085#2 1280089222 1280089201#0 295408452#0 295408452#1 295408452#5 295408452#6 295408452#7 295408452#8 295408452#9 295408452#10 295408452#11 295408452#16 295408452#16-AddedOffRampEdge 1034028675#0 1034028675#2 1034028675#6 1034027336#2 1282340718 1282340717#0 694772625#0 1210918873#0 1392384124 693330103#2" />
    </vehicle>
    <vehicle id="sv_3" type="car_suv" depart="12.00">
        <route edges="-828678784 -828678785#0 828678787#2 828678786 118672606#3 118672606#6 676453140#3 118570159#10 118570159#11 118570159#12 118570159#14 118570159#15 118570159#16 -372220804#31 -118575976#1 -118575976#0 -118566872#2 -118566872#1 -118566872#0 -39368999#3 -39368999#2 -39368999#1 -39368999#0 695490087#1 695490086#1 295449625#0 295449625#1 695496042#0 695496042#1 695496042#2 695496040 1280219250 694767769 695496039#0 695496039#1" />
    </vehicle>
    <vehicle id="ma_28" type="motorbike" depart="12.32">
        <route edges="295128790#3 1279915895#1 408161670#0 -372467078#4 -372467078#2 -372467078#1 -372467078#0 -35950868#8 -35950868#7 -35950868#6 -35950868#5 -35950868#4 -35950868#3 -35950868#2 -35950868#0 -695510008#3 -695510008#1 -695510008#0 1282340739 118567494 1279915919 1279915896#0 1279915896#1 1282715056 696168834#0 696168834#1 696169688 696169687#1 695446625#0 695446625#1 118566872#11 -118566873#2 -118566873#1 -118566873#0 -695446623#1 -695446623#0" />
    </vehicle>
    <vehicle id="ma_30" type="motorbike" depart="13.20">
        <route edges="408161670#23 408161670#24 408161670#25 408161670#27 408161670#28 1279915898#5 1279915898#6 1279915898#9 302751295#0 302751295#1 302751295#2 302751295#3 302751295#4 302751295#5 302751295#6 302751295#7 302751295#8 302751295#9 302751295#10 302751295#11 302751295#12 302751295#13 302751295#15 35950864#0 35950864#3 35950864#6 35950864#8 35950864#14 35950864#17 35950864#18 35950864#19 35950864#21 35950864#22 35950864#23 35950864#24 35950864#25 35950864#28 35950864#30 -642086911 295408466#0 295408466#1 1280219259#1 295408468#0 295408468#4 295408468#5 295408468#6 695496039#0" />
    </vehicle>
    <vehicle id="ca_8" type="car" depart="13.36">
        <route edges="673151142#5 695025562#0 695025562#1 695025559 693885802#0 693885802#2 695030266 695033474#1 695040105#0 695040105#3 695040105#5 695040552#0 695040552#1 1279915919 1279915896#0 1279915896#1 1282715056 696168834#0 696168834#1 696169688 696169687#1 695446625#0 695446625#1 695446625#3 695490087#1 695490086#1 295449625#0 295449625#1 695496042#0 695496042#1 695496042#2 695496040 1280219250 694767769 1280219267" />
    </vehicle>
    <vehicle id="ma_32" type="motorbike" depart="14.08">
        <route edges="295408452#6 295408452#7 295408452#8 295408452#9 -302751295#23 697200467#10 697200467#11 1280089201#2 -694715298 -694715297 -39368999#21 -39368999#20 -39368999#16 -39368999#15 -39368999#14 695544823 695544822 39368999#13 39368999#14 39368999#15" />
    </vehicle>
    <vehicle id="ma_34" type="motorbike" depart="14.96">
        <route edges="1282340733#1 641397119#0 641397119#1 1282340713#0 1282340713#1 -676458410#0 302751284#3 673151142#2 673151142#3 673151142#4 673151142#5 695025562#0 695025562#1 695025559 693885802#0 693885802#2 695030266 695033474#1 695040105#0 695040105#3 1447078728#2 295128790#0 295128790#3" />
    </vehicle>
    <vehicle id="ma_35" type="motorbike" depart="15.40">
        <route edges="405113895 -405113896#0 405113896#0 -405113895 -405113892#3 -405113892#2 -118674615#4 -118674615#3 -118674615#2 -118674615#1 -35950864#20 -35950864#18 -39368999#21 -39368999#20 118673937#0 118673937#3 -561913438#6 1446454670" />
    </vehicle>
    <vehicle id="sv_4" type="car_suv" depart="16.00">
        <route edges="1034028676#1 -302751298 -643237807#1 905050168 643237806#0 643237806#1 -1279915900#1 910359052#3 910359052#5 35950882#1 35950882#3 35950882#7 35950882#8 35950882#9 35950882#10 35950882#11 35950882#14 -35950868#38 -35950868#37 -35950868#36 -35950868#35 -35950868#33 -35950868#31 -35950868#30 -35950868#29 -35950868#28 -35950868#26 -35950868#25 -35950868#23 -35950868#22 -35950868#21 -35950868#20 -35950868#19 -35950868#18 -35950868#17 -35950868#16 -35950868#15 -35950868#14 -35950868#13 -35950868#12 -562701499 562701499 35950868#11" />
    </vehicle>
    <vehicle id="mx_19" type="motorbike2" depart="16.53">
        <route edges="-1447078728#1 828678749#0 -695040102#0 695040105#3 695040105#5 695040552#0 695040552#1 1279915919 1279915896#0 1279915896#1 1282715056 1282340752 1279915897 695510008#0 695510008#1 695510008#2 35950868#0 35950868#1 35950868#3 35950868#4 35950868#5 35950868#6 35950868#7 35950868#8 35950868#9 35950868#10 35950868#11 35950868#13 35950868#14 35950868#15 35950868#16 35950868#17 35950868#18 35950868#19 35950868#20 35950868#21 35950868#22 35950868#23 35950868#24 35950868#26 35950868#27 35950868#29 35950868#30" />
    </vehicle>
    <vehicle id="ma_39" type="motorbike" depart="17.16">
        <route edges="1355319664 -1355319664 408161670#20 -642360965#3 -642360965#2 -642360965#1 -642360965#0 -35950868#20 -35950868#19 -35950868#18 -35950868#17 -35950868#16 -35950868#15 -35950868#14 -35950868#13 -35950868#12 -35950868#10 -35950868#9 -35950868#8 -35950868#7 -35950868#6 -35950868#5 -35950868#4 -35950868#3 -35950868#2 -35950868#0 -695510008#3 -695510008#1 -695510008#0 1282340739 118567494 1279915919 1279915896#0 1279915896#1 1282715056 696168834#0 696168834#1 696169688 696169687#1 695446625#0 695446625#1 695446625#3 695490087#1 695490086#1 643264676 695504114#0 695504114#1" />
    </vehicle>
    <vehicle id="ma_41" type="motorbike" depart="18.04">
        <route edges="964171425#3 -676458408 -118672444#1 -673151144#0 -118575969#1 -118575969#0 -118555049#1 -118555049#0 1279915898#0 1279915898#2 1279915898#5 1279915898#6 1279915898#9 -35950868#38 -35950868#37 -35950868#36 -35950868#35 -35950868#33 -35950868#31 -35950868#30 -35950868#29 -35950868#28 -35950868#26 118672607#0 828724747#2 -828678788#1" />
    </vehicle>
    <vehicle id="ma_42" type="motorbike" depart="18.48">
        <route edges="343417844#0 693416739#0 371908669#0 689583171#10 689583171#11 689583171#12 302739240#0 302739240#3 302739240#4 693885802#2 695030266 695033474#1 695040105#0 695040105#3 695040105#5 695040552#0 695040552#1 1279915919 1279915896#0 1279915896#1 1282715056 1282340752 1279915897 1282340739 695510007#0" />
    </vehicle>
    <vehicle id="ma_44" type="motorbike" depart="19.36">
        <route edges="695295267#0 695295267#2 -118674615#1 -35950864#20 -35950864#18 -39368999#21 -39368999#20 -39368999#16 -39368999#15 -39368999#14 695544823 -372220804#34 -372220804#33 -372220804#32 -372220804#31 -372220804#30 -372220804#29 -372220804#28 -372220804#27 -372220804#22 -372220804#21 -372220804#20 -372220804#19 -372220804#18 -372220804#17 -372220804#16 -372220804#15 295449627#3 295449627#4 295449627#5 698046188#1 1279915897 1282340739 118567494 1279915919 35950925#0 35950925#1 35950925#2 35950925#3 118575972#0 118575972#1 118575972#3 118575972#5 689583171#11 689583171#12 343417844#0" />
    </vehicle>
    <vehicle id="tx_5" type="taxi" depart="20.00">
        <route edges="-676438752#3 -676438752#1 -321069049#2 -321069049#0 321069035#1 641487801 295408470#1 295408470#2 673632547 160628085#2 1280089222 1280089201#0 1280089201#1 1280089201#2 -694715298 -694715297 -39368999#21 -39368999#20 -39368999#16 -39368999#15 -39368999#14 695544823 -372220804#34 -372220804#33 -372220804#32 -118570159#16 -118570159#15 -118570159#14 -118570159#13 -118570159#11 -118570159#10 -118570159#9 -118570159#8 -118570159#7 -118570159#6 -118570159#5 -118570159#3 -118570159#2 -35950868#16 -35950868#15 118573603#0 -828678860#4 -828678860#3" />
    </vehicle>
    <vehicle id="tk_3" type="truck" depart="20.01">
        <route edges="694830396 694830397 694830395#0 694830395#1 695025562#0 695025562#1 256668722 693885803#0 693885803#1 693885803#17 -372464931#3 -372464931#2 -372464931#1 -372464931#0 408161670#17 -118573603#2 -118573603#1 -118573603#0 35950868#15 35950868#16 118570159#0 118570159#3 118570159#4 118570159#6 118570159#7 118570159#8 118570159#9 118570159#10 118570159#11 118570159#12 118570159#14 118570159#15 118570159#16 372220804#32 372220804#33 372220804#34 -695544823 39368999#14 39368999#15 39368999#16 39368999#17 39368999#21 694715299#1 694715298 1280219265 1280219261 1282340737 1282340736 160628085#0 160628085#1 160628085#2 1280089222 1280089201#0 295408452#0 295408452#1 295408452#5 295408452#6 295408452#7 295408452#8 295408452#9" />
    </vehicle>
    <vehicle id="ma_46" type="motorbike" depart="20.24">
        <route edges="-295449629#2 -295449629#1 -295449629#0 -118566872#16 -118566872#12 295449627#0 295449627#2 295449627#3 295449627#4 295449627#5 698046188#1 1279915897 695510008#0 695510008#1 695510008#2 35950868#0 35950868#1 35950868#3 35950868#4 35950868#5 35950868#6 35950868#7 35950868#8 35950868#9 35950868#10 35950868#11 35950868#13 35950868#14 35950868#15 35950868#16 35950868#17 35950868#18 35950868#19 35950868#20 35950868#21 35950868#22 35950868#23 35950868#24 35950868#26 35950868#27 35950868#29 35950868#30 35950868#31 35950868#32 35950868#34 35950868#36 35950868#37 35950868#38 -35950882#14 -35950882#13 -35950882#10 -35950882#9 -35950882#8 -894924691 -372467087#1 -372467084#2 372467085#0 372467085#1" />
    </vehicle>
    <vehicle id="ma_48" type="motorbike" depart="21.12">
        <route edges="695295267#2 -118674615#1 -35950864#20 -35950864#18 -39368999#21 -39368999#20 118673937#0 118673937#3 118673937#4 -562701507#1 -562701507#0 828724768#0 828724768#1 828724764#0 828724764#1 828724763#2 828724763#3 828724762 -118672607#5 -118672607#4 -118672607#3 -118672607#2 -118672607#1 -118672607#0 35950868#26 828724746 -828724746" />
    </vehicle>
    <vehicle id="mx_25" type="motorbike2" depart="21.75">
        <route edges="828678750#0 696755556#1 695040552#0 695040552#1 1279915919 1279915896#0 1279915896#1 1282715056 1282340752 1279915897 695510008#0 695510008#1 695510008#2 35950868#0 35950868#1 35950868#3 35950868#4 35950868#5 35950868#6 35950868#7 35950868#8 35950868#9 35950868#10 35950868#11 35950868#13 35950868#14 35950868#15 35950868#16 35950868#17 35950868#18 35950868#19 35950868#20 35950868#21 35950868#22 -562701506#1 -562701506#0 408161670#23 408161670#24 -118573597 765351891#4 118555049#0 118555049#1 118575969#0 118575969#1 302739242#0 302739242#1 964171425#0" />
    </vehicle>
    <vehicle id="mx_26" type="motorbike2" depart="22.62">
        <route edges="695040552#1 1279915919 1279915896#0 1279915896#1 1282715056 1282340752 1279915897 695510008#0 695510008#1 695510008#2 35950868#0 35950868#1 35950868#3 35950868#4 35950868#5 35950868#6 35950868#7 35950868#8 35950868#9 35950868#10 35950868#11 35950868#13 35950868#14 35950868#15 35950868#16 118570159#0 118570159#3 -676453141" />
    </vehicle>
    <vehicle id="ca_14" type="car" depart="23.38">
        <route edges="321069035#3 -676439266 295408470#1 295408470#2 673632547 160628085#2 1280089222 1280089201#0 295408452#0 295408452#1 295408452#5 295408452#6 295408452#7 295408452#8 295408452#9 295408452#10 295408452#11 295408452#16 295408452#16-AddedOffRampEdge 1034028675#0 1034028675#2" />
    </vehicle>
    <vehicle id="sv_6" type="car_suv" depart="24.00">
        <route edges="-118575976#0 -118566872#2 -118566872#1 -118566872#0 39368999#4 39368999#6 39368999#9 39368999#10 39368999#11 39368999#13 39368999#14 39368999#15 39368999#16 39368999#17 39368999#21 694715299#1 406779270 695295267#0" />
    </vehicle>
    <vehicle id="mx_28" type="motorbike2" depart="24.36">
        <route edges="828678862#1 828678861 828678860#1 828678860#2 828678860#4 -118573603#0 35950868#15 35950868#16 118570159#0 118570159#3 118570159#4 118570159#6 118570159#7 118570159#8 118570159#9 118570159#10 118570159#11 118570159#12 118570159#14 118570159#15 118570159#16 372220804#32 372220804#33 372220804#34 695544822" />
    </vehicle>
    <vehicle id="ca_15" type="car" depart="25.05">
        <route edges="295449627#2 295449627#3 295449627#4 295449627#5 698046188#1 1279915897 1282340739 695510007#0 695510007#1 295128790#0 295128790#3 1279915895#1 408161670#0 408161670#13 408161670#16 372464931#0" />
    </vehicle>
    <vehicle id="ma_58" type="motorbike" depart="25.52">
        <route edges="697200467#11 1280089201#2 1280219265 1280219261 1282340737 1282340736 160628085#0 624455965#0 -295408470#2 -295408470#1 -641487801" />
    </vehicle>
    <vehicle id="ma_60" type="motorbike" depart="26.40">
        <route edges="295408462#10 295408462#12 1282340737 1282340736 160628085#0 160628085#1 160628085#2 1280089222 1280089201#0 1280089201#1 1280089201#2 -694715298 -694715297 -39368999#21 -39368999#20 -39368999#16 -39368999#15 -39368999#14 695544823 -372220804#34 -372220804#33 -372220804#32 -372220804#31 -372220804#30 -372220804#29 -372220804#28 -372220804#27 -372220804#22 -372220804#21 -372220804#20 -372220804#19 -372220804#18 -372220804#17 -372220804#16 -372220804#15 295449627#3 295449627#4 295449627#5 698046188#1 1279915897 1282340739 695510007#0 695510007#1 295128790#0 295128790#3 295128790#4 295128790#10 693885804#0 693885804#2 1426764507#0 1426764507#2" />
    </vehicle>
    <vehicle id="ca_16" type="car" depart="26.72">
        <route edges="35950897#0 295386165 673151142#2 673151142#3 673151142#4 673151142#5 695025562#0 695025562#1 695025559 693885802#0 693885802#2 695030266 695033474#1 695040105#0 695040105#3 695040105#5 695040552#0 695040552#1 1279915919 1279915896#0 1279915896#1 1282715056 696168834#0 696168834#1 696169688 696169687#1 695446625#0 695446625#1 695446625#3" />
    </vehicle>
    <vehicle id="ma_62" type="motorbike" depart="27.28">
        <route edges="828678860#1 828678860#2 828678860#4 -118573603#0 35950868#15 35950868#16 118570159#0 118570159#3 118570159#4 118570159#6 118570159#7 118570159#8 118570159#9 118570159#10 118570159#11 118570159#12 118570159#14 118570159#15 118570159#16 372220804#32 372220804#33 372220804#34 -695544823 39368999#14 39368999#15 39368999#16 39368999#17 39368999#21 694715299#1 694715298 1280219265 1280219261 1282340737 1282340736 160628085#0 160628085#1 160628085#2 295408461#0 295408461#1 295408461#4 295408461#5" />
    </vehicle>
    <vehicle id="sv_7" type="car_suv" depart="28.00">
        <route edges="-676465939#3 -676465939#2 -676465939#0 -562634342 -118672633#1 562634341 -302751295#7 -302751295#6 -302751295#5 -302751295#4 -302751295#3 -302751295#2 -302751295#1 -302751295#0 -1279915898#9 -1279915898#8 -1279915898#5 -1279915898#3 -1279915898#1 -765351891#4 -765351891#3 -765351891#0 118575968#0 118575968#2 302751284#0 302751284#3 673151142#2 673151142#3 673151142#4 673151142#5 695025562#0 695025562#1 695025559 693885802#0 693885802#2 295386152#0 -118575975#6 -118575975#5 -118575975#4 828678743 -828678743" />
    </vehicle>
    <vehicle id="ca_17" type="car" depart="28.39">
        <route edges="-641397118 641397119#1 -676461674 964171425#0 964171425#2 964171425#3 964171425#4 964171425#5 964171425#6 1034028678 1034027336#0 910359052#0 910359052#3 910359052#5" />
    </vehicle>
    <vehicle id="ma_66" type="motorbike" depart="29.04">
        <route edges="408161670#27 642475790 -1279915898#3 -1279915898#1 118555049#0 118555049#1 118555049#2 118555049#5 118555049#8 118555049#10 118555049#15 118555049#17 910359052#3" />
    </vehicle>
    <vehicle id="ma_68" type="motorbike" depart="29.92">
        <route edges="828678775 -828678775 -118672606#8 -118672606#7 -676453140#2 -676453140#0 -1076293830#1 -1076293830#0 1160396738 -372466117#3 -372466117#2 -372466117#1 -372466117#0 -302751295#9 35950942#0 35950942#1 35950942#2 697200467#1 697200467#4 697200467#4-AddedOffRampEdge 697200467#7 697200467#8 697200467#9" />
    </vehicle>
    <vehicle id="ma_69" type="motorbike" depart="30.36">
        <route edges="695496042#0 695496042#1 695496042#2 695496040 1280219250 694767769 695496039#0 695496039#1 695496039#2 695496039#3 695502614 695502613 695502611#0 695502611#1 695504114#0 695504114#1 695504114#4 295449627#0 295449627#2 295449627#3 295449627#4 295449627#5 698046188#1 1279915897 695510008#0 695510008#1 695510008#2 35950868#0 35950868#1 35950868#3 35950868#4 35950868#5 35950868#6 35950868#7 35950868#8 372467078#0 372467078#1 372467078#2 372467078#3 408161670#13 642067353 372464931#1 372464931#2 372464931#3 693885803#26 693885803#27" />
    </vehicle>
    <vehicle id="ma_71" type="motorbike" depart="31.24">
        <route edges="-372463312 696756023 696755556#1 695040552#0 695040552#1 1279915919 1279915896#0 1279915896#1 1282715056 1282340752 1279915897 695510008#0 695510008#1 695510008#2 35950868#0 35950868#1 35950868#3 35950868#4 35950868#5 35950868#6 35950868#7 35950868#8 35950868#9 35950868#10 35950868#11 35950868#13 35950868#14 35950868#15 35950868#16 35950868#17 35950868#18 35950868#19 35950868#20 35950868#21 35950868#22 35950868#23 35950868#24 35950868#26 35950868#27 35950868#29 35950868#30 35950868#31 35950868#32 35950868#34 35950868#36 35950868#37 35950868#38 302751295#0 302751295#1 302751295#2 302751295#3 302751295#4 302751295#5 302751295#6 302751295#7 302751295#8 35950942#0 35950942#1 35950942#2 697200467#1 697200467#4 697200467#4-AddedOffRampEdge" />
    </vehicle>
    <vehicle id="ca_19" type="car" depart="31.73">
        <route edges="256668722 1096471623#0 35950897#0 295386165 673151142#2 673151142#3 673151142#4 673151142#5 695025562#0 695025562#1 695025559 693885802#0 693885802#2 295386152#0 -118575975#6 -828678745#1 828678744 118575975#5 118575975#6 -295386152#0" />
    </vehicle>
    <vehicle id="ma_73" type="motorbike" depart="32.12">
        <route edges="-676465938#1 -676465938#0 828724724#1 828724723 302751295#5 302751295#6 302751295#7 302751295#8 302751295#9 302751295#10 302751295#11 302751295#12 302751295#13 302751295#15 35950864#0 35950864#3 35950864#6 35950864#8 35950864#14 35950864#17 35950864#18 35950864#19 35950864#21 35950864#22 35950864#23 35950864#24 35950864#25 35950864#28 35950864#30 -642086911 295408466#0 295408466#1 1280219259#1 295408468#0 295408468#4 295408468#5 295408468#6 695496039#0 695496039#1" />
    </vehicle>
    <vehicle id="ma_75" type="motorbike" depart="33.00">