<?xml version="1.0" encoding="UTF-8"?>

<!-- generated on 2026-03-16 23:18:02.420691 by Eclipse SUMO randomTrips.py v1.26.0
<configuration>
    <net-file value="F:\Newgeneration\FlowMindAI\sumo\danang\danang.net.xml"/>
    <additional-files value="F:\Newgeneration\FlowMindAI\sumo\danang\danang.vtypes.xml"/>
    <weights-prefix value="F:\Newgeneration\FlowMindAI\sumo\danang\danang.weights"/>
    <output-trip-file value="F:\Newgeneration\FlowMindAI\sumo\danang\danang.bs_.trips.xml"/>
    <prefix value="bs_"/>
    <trip-attributes value="type=&quot;bus&quot;"/>
    <fringe-factor value="10"/>
    <random value="True"/>
    <remove-loops value="True"/>
    <period value="9.0"/>
</configuration>
-->

<routes xmlns:xsi="http://www.w3.org/2001/XMLSchema-instance" xsi:noNamespaceSchemaLocation="http://sumo.dlr.de/xsd/routes_file.xsd">
    <trip id="bs_0" depart="0.00" from="118555049#8" to="295408461#0" type="bus"/>
    <trip id="bs_1" depart="9.00" from="828724769" to="295128790#4" type="bus"/>
    <trip id="bs_2" depart="18.00" from="696168834#1" to="1279915919" type="bus"/>
    <trip id="bs_3" depart="27.00" from="-828678814#3" to="694594970#0" type="bus"/>
    <trip id="bs_4" depart="36.00" from="694830397" to="779462187#1" type="bus"/>
    <trip id="bs_5" depart="45.00" from="295408452#16-AddedOffRampEdge" to="295408462#0" type="bus"/>
    <trip id="bs_6" depart="54.00" from="295408462#10" to="295408462#12" type="bus"/>
    <trip id="bs_7" depart="63.00" from="295408452#16-AddedOffRampEdge" to="295408462#8" type="bus"/>
    <trip id="bs_8" depart="72.00" from="673151142#4" to="697200467#4" type="bus"/>
    <trip id="bs_9" depart="81.00" from="295408452#6" to="673151142#3" type="bus"/>
    <trip id="bs_10" depart="90.00" from="295408462#10" to="302751282-AddedOnRampEdge" type="bus"/>
    <trip id="bs_11" depart="99.00" from="695502613" to="-828678802#0" type="bus"/>
    <trip id="bs_12" depart="108.00" from="295408461#1" to="295408459#5" type="bus"/>
    <trip id="bs_13" depart="117.00" from="1282340772" to="1282340737" type="bus"/>
    <trip id="bs_14" depart="126.00" from="295408452#1" to="693885802#0" type="bus"/>
    <trip id="bs_15" depart="135.00" from="694583900#0" to="35950897#13" type="bus"/>
    <trip id="bs_16" depart="144.00" from="295408452#6" to="405962812#1" type="bus"/>
    <trip id="bs_17" depart="153.00" from="694583900#0-AddedOffRampEdge" to="694601892" type="bus"/>
    <trip id="bs_18" depart="162.00" from="35950864#14" to="676458405#1" type="bus"/>
    <trip id="bs_19" depart="171.00" from="695502611#1" to="39368999#14" type="bus"/>
    <trip id="bs_20" depart="180.00" from="910359052#7" to="695502611#0" type="bus"/>
    <trip id="bs_21" depart="189.00" from="693416739#0" to="-118672608#1" type="bus"/>
    <trip id="bs_22" depart="198.00" from="697200467#0" to="694598419#1-AddedOnRampEdge" type="bus"/>
    <trip id="bs_23" depart="207.00" from="-828678912#4" to="-676458410#0" type="bus"/>
    <trip id="bs_24" depart="216.00" from="964171425#4" to="295408465#2-AddedOnRampEdge" type="bus"/>
    <trip id="bs_25" depart="225.00" from="697822848#1" to="828678806" type="bus"/>
    <trip id="bs_26" depart="234.00" from="295408452#5" to="695510007#0" type="bus"/>
    <trip id="bs_27" depart="243.00" from="1210918872#1" to="-405962814" type="bus"/>
    <trip id="bs_28" depart="252.00" from="695025562#0" to="39368999#2" type="bus"/>
    <trip id="bs_29" depart="261.00" from="697200467#4" to="-118567489#2" type="bus"/>
    <trip id="bs_30" depart="270.00" from="696168834#0" to="1280614485" type="bus"/>
    <trip id="bs_31" depart="279.00" from="408161670#20" to="295408452#8" type="bus"/>
    <trip id="bs_32" depart="288.00" from="118688839#1" to="693416739#3" type="bus"/>
    <trip id="bs_33" depart="297.00" from="694830396" to="689583171#15" type="bus"/>
    <trip id="bs_34" depart="306.00" from="295408459#5" to="1210918873#1" type="bus"/>
    <trip id="bs_35" depart="315.00" from="-828724775" to="-828678837#0" type="bus"/>
    <trip id="bs_36" depart="324.00" from="295408452#16-AddedOffRampEdge" to="1034028677#1" type="bus"/>
    <trip id="bs_37" depart="333.00" from="964171425#0" to="343417844#0" type="bus"/>
    <trip id="bs_38" depart="342.00" from="405962811#2" to="695025562#0" type="bus"/>
    <trip id="bs_39" depart="351.00" from="695025560#0" to="1418093030" type="bus"/>
    <trip id="bs_40" depart="360.00" from="295408460#2" to="694598419#1" type="bus"/>
    <trip id="bs_41" depart="369.00" from="694774375#0" to="-828724752#1" type="bus"/>
    <trip id="bs_42" depart="378.00" from="964171425#0" to="295408452#16-AddedOffRampEdge" type="bus"/>
    <trip id="bs_43" depart="387.00" from="1034028675#2" to="160628085#2" type="bus"/>
    <trip id="bs_44" depart="396.00" from="698936203#8" to="-696701808" type="bus"/>
    <trip id="bs_45" depart="405.00" from="694601892" to="-343237264#0" type="bus"/>
    <trip id="bs_46" depart="414.00" from="828724707" to="295408452#11" type="bus"/>
    <trip id="bs_47" depart="423.00" from="695510007#0" to="-828678779#1" type="bus"/>
    <trip id="bs_48" depart="432.00" from="295408452#9" to="1282715056" type="bus"/>
    <trip id="bs_49" depart="441.00" from="302751295#12" to="-372466114#3" type="bus"/>
    <trip id="bs_50" depart="450.00" from="-372220804#30" to="199383481-AddedOnRampEdge" type="bus"/>
    <trip id="bs_51" depart="459.00" from="295408462#10" to="295408461#1" type="bus"/>
    <trip id="bs_52" depart="468.00" from="-35950883#9" to="295408452#11" type="bus"/>
    <trip id="bs_53" depart="477.00" from="295408452#6" to="295408452#0" type="bus"/>
    <trip id="bs_54" depart="486.00" from="408161670#27" to="295408461#1" type="bus"/>
    <trip id="bs_55" depart="495.00" from="-828724737" to="302751284#3" type="bus"/>
    <trip id="bs_56" depart="504.00" from="689583171#10" to="118673937#4" type="bus"/>
    <trip id="bs_57" depart="513.00" from="964171425#4" to="695040552#0" type="bus"/>
    <trip id="bs_58" depart="522.00" from="697200467#4" to="295408452#11" type="bus"/>
    <trip id="bs_59" depart="531.00" from="1280219258#0" to="1282340716" type="bus"/>
    <trip id="bs_60" depart="540.00" from="695510007#0" to="35950883#0" type="bus"/>
    <trip id="bs_61" depart="549.00" from="693885802#0" to="295408452#6" type="bus"/>
    <trip id="bs_62" depart="558.00" from="1034027336#0" to="302751284#0" type="bus"/>
    <trip id="bs_63" depart="567.00" from="295408452#6" to="295408461#4" type="bus"/>
    <trip id="bs_64" depart="576.00" from="1280614485" to="696169688" type="bus"/>
    <trip id="bs_65" depart="585.00" from="295128790#0" to="828678788#1" type="bus"/>
    <trip id="bs_66" depart="594.00" from="828724768#1" to="1391330070#0" type="bus"/>
    <trip id="bs_67" depart="603.00" from="689583171#12" to="295408465#1" type="bus"/>
    <trip id="bs_68" depart="612.00" from="-828678743" to="295408465#2-AddedOnRampEdge" type="bus"/>
    <trip id="bs_69" depart="621.00" from="295408459#4" to="-295386152#12" type="bus"/>
    <trip id="bs_70" depart="630.00" from="697200467#11" to="-35950868#23" type="bus"/>
    <trip id="bs_71" depart="639.00" from="695496042#0" to="964171425#5" type="bus"/>
    <trip id="bs_72" depart="648.00" from="828724770" to="779462187#1" type="bus"/>
    <trip id="bs_73" depart="657.00" from="-828678806" to="295408465#1" type="bus"/>
    <trip id="bs_74" depart="666.00" from="695502613" to="295408452#16-AddedOffRampEdge" type="bus"/>
    <trip id="bs_75" depart="675.00" from="695295267#0" to="1279915921" type="bus"/>
    <trip id="bs_76" depart="684.00" from="-828724717" to="695502611#0" type="bus"/>
    <trip id="bs_77" depart="693.00" from="1034028675#0" to="-642354268#3" type="bus"/>
    <trip id="bs_78" depart="702.00" from="295408452#5" to="1280219259#0" type="bus"/>
    <trip id="bs_79" depart="711.00" from="-118570159#7" to="695040552#1" type="bus"/>
    <trip id="bs_80" depart="720.00" from="1282340772" to="695504114#4" type="bus"/>
    <trip id="bs_81" depart="729.00" from="-695210520" to="1391330070#12" type="bus"/>
    <trip id="bs_82" depart="738.00" from="-35950868#29" to="-828724754#2" type="bus"/>
    <trip id="bs_83" depart="747.00" from="694598419#0" to="199383481-AddedOnRampEdge" type="bus"/>
    <trip id="bs_84" depart="756.00" from="-302751295#32" to="1279915900#2" type="bus"/>
    <trip id="bs_85" depart="765.00" from="1280219260#0" to="697200467#11" type="bus"/>
    <trip id="bs_86" depart="774.00" from="-828724684#1" to="295408452#16" type="bus"/>
    <trip id="bs_87" depart="783.00" from="1280219259#0" to="1418093030" type="bus"/>
    <trip id="bs_88" depart="792.00" from="695040105#0" to="408161670#0" type="bus"/>
    <trip id="bs_89" depart="801.00" from="295408459#4" to="828724714#1" type="bus"/>
    <trip id="bs_90" depart="810.00" from="694775628#2" to="295408462#8" type="bus"/>
    <trip id="bs_91" depart="819.00" from="405962815#0" to="1418093030" type="bus"/>
    <trip id="bs_92" depart="828.00" from="693330103#0" to="302751284#0" type="bus"/>
    <trip id="bs_93" depart="837.00" from="695040105#3" to="372220804#18" type="bus"/>
    <trip id="bs_94" depart="846.00" from="694772625#0" to="160628085#1" type="bus"/>
    <trip id="bs_95" depart="855.00" from="828678800" to="118575976#0" type="bus"/>
    <trip id="bs_96" depart="864.00" from="1280219260#0" to="676450957" type="bus"/>
    <trip id="bs_97" depart="873.00" from="1210918872#1" to="35950897#13" type="bus"/>
    <trip id="bs_98" depart="882.00" from="408161670#22" to="779462187#1" type="bus"/>
    <trip id="bs_99" depart="891.00" from="295408461#4" to="695025560#0" type="bus"/>
    <trip id="bs_100" depart="900.00" from="-828724697#0" to="695496039#3" type="bus"/>
    <trip id="bs_101" depart="909.00" from="697200467#8" to="828678817#0" type="bus"/>
    <trip id="bs_102" depart="918.00" from="118570175" to="295128790#0" type="bus"/>
    <trip id="bs_103" depart="927.00" from="895447147" to="695040105#0" type="bus"/>
    <trip id="bs_104" depart="936.00" from="302751295#19" to="-39368999#10" type="bus"/>
    <trip id="bs_105" depart="945.00" from="695025562#0" to="828724725#0" type="bus"/>
    <trip id="bs_106" depart="954.00" from="695510007#1" to="695496042#0" type="bus"/>
    <trip id="bs_107" depart="963.00" from="694775628#0" to="39368999#17" type="bus"/>
    <trip id="bs_108" depart="972.00" from="118575972#5" to="-39368999#8" type="bus"/>
    <trip id="bs_109" depart="981.00" from="295408462#1" to="694601892" type="bus"/>
    <trip id="bs_110" depart="990.00" from="408161670#22" to="676451738#0" type="bus"/>
    <trip id="bs_111" depart="999.00" from="160628085#2" to="694775628#2" type="bus"/>
    <trip id="bs_112" depart="1008.00" from="35950925#4" to="372467078#3" type="bus"/>
    <trip id="bs_113" depart="1017.00" from="-828678741#0" to="-35950882#2" type="bus"/>
    <trip id="bs_114" depart="1026.00" from="1282340731" to="779462187#0" type="bus"/>
    <trip id="bs_115" depart="1035.00" from="-372466115#0" to="-295449645" type="bus"/>
    <trip id="bs_116" depart="1044.00" from="118575975#6" to="1282340716" type="bus"/>
    <trip id="bs_117" depart="1053.00" from="118570164#1" to="1034028677#0" type="bus"/>
    <trip id="bs_118" depart="1062.00" from="694583900#0-AddedOffRampEdge" to="-828678912#2" type="bus"/>
    <trip id="bs_119" depart="1071.00" from="160628085#1" to="295408463#1" type="bus"/>
    <trip id="bs_120" depart="1080.00" from="561474227#0" to="-35950868#23" type="bus"/>
    <trip id="bs_121" depart="1089.00" from="673151142#4" to="1034028677#0" type="bus"/>
    <trip id="bs_122" depart="1098.00" from="295408462#0" to="695504114#1" type="bus"/>
    <trip id="bs_123" depart="1107.00" from="695496039#2" to="1392384121#0" type="bus"/>
    <trip id="bs_124" depart="1116.00" from="695295267#0" to="779462187#0" type="bus"/>
    <trip id="bs_125" depart="1125.00" from="695025562#0" to="1034028675#0" type="bus"/>
    <trip id="bs_126" depart="1134.00" from="1280219261" to="295408452#7" type="bus"/>
    <trip id="bs_127" depart="1143.00" from="118575975#4" to="35950864#8" type="bus"/>
    <trip id="bs_128" depart="1152.00" from="408161670#13" to="-641423230" type="bus"/>
    <trip id="bs_129" depart="1161.00" from="695295265#0" to="-828724755#1" type="bus"/>
    <trip id="bs_130" depart="1170.00" from="295408452#1" to="779462187#1" type="bus"/>
    <trip id="bs_131" depart="1179.00" from="295408452#7" to="-118673937#2" type="bus"/>
    <trip id="bs_132" depart="1188.00" from="-562701506#0" to="1034028675#0" type="bus"/>
    <trip id="bs_133" depart="1197.00" from="828724700#0" to="404718839" type="bus"/>
    <trip id="bs_134" depart="1206.00" from="697200467#4" to="1034028678" type="bus"/>
    <trip id="bs_135" depart="1215.00" from="695040105#3" to="295408459#7" type="bus"/>
    <trip id="bs_136" depart="1224.00" from="35950868#16" to="-372220804#3" type="bus"/>
    <trip id="bs_137" depart="1233.00" from="118575967" to="295408452#16" type="bus"/>
    <trip id="bs_138" depart="1242.00" from="696168834#1" to="1280614505#1" type="bus"/>
    <trip id="bs_139" depart="1251.00" from="295408452#16-AddedOffRampEdge" to="-372467085#0" type="bus"/>
    <trip id="bs_140" depart="1260.00" from="35950868#6" to="694598419#1-AddedOnRampEdge" type="bus"/>
    <trip id="bs_141" depart="1269.00" from="1280219259#1" to="35950868#15" type="bus"/>
    <trip id="bs_142" depart="1278.00" from="295408462#10" to="295408460#3" type="bus"/>
    <trip id="bs_143" depart="1287.00" from="35950868#16" to="118673919#2" type="bus"/>
    <trip id="bs_144" depart="1296.00" from="828724699#1" to="-372466114#2" type="bus"/>
    <trip id="bs_145" depart="1305.00" from="964171425#4" to="828724697#1" type="bus"/>
    <trip id="bs_146" depart="1314.00" from="910359052#8" to="118673921#4" type="bus"/>
    <trip id="bs_147" depart="1323.00" from="295408452#1" to="408161670#18" type="bus"/>
    <trip id="bs_148" depart="1332.00" from="695510007#1" to="-1446429434#1" type="bus"/>
    <trip id="bs_149" depart="1341.00" from="295408452#9" to="673151142#3" type="bus"/>
    <trip id="bs_150" depart="1350.00" from="295408461#0" to="1280219259#0" type="bus"/>
    <trip id="bs_151" depart="1359.00" from="828678811#1" to="-118575969#0" type="bus"/>
    <trip id="bs_152" depart="1368.00" from="676455250#1" to="1034028677#1" type="bus"/>
    <trip id="bs_153" depart="1377.00" from="35950897#15" to="828678743" type="bus"/>
    <trip id="bs_154" depart="1386.00" from="697200467#9" to="-828724751" type="bus"/>
    <trip id="bs_155" depart="1395.00" from="695040552#1" to="408161670#22" type="bus"/>
    <trip id="bs_156" depart="1404.00" from="295408452#5" to="295449625#1" type="bus"/>
    <trip id="bs_157" depart="1413.00" from="1280219260#1" to="295408461#9" type="bus"/>
    <trip id="bs_158" depart="1422.00" from="910359052#5" to="408161670#27" type="bus"/>
    <trip id="bs_159" depart="1431.00" from="695490087#1" to="295408452#0" type="bus"/>
    <trip id="bs_160" depart="1440.00" from="910359052#8" to="695496039#2" type="bus"/>
    <trip id="bs_161" depart="1449.00" from="697822848#0" to="695025562#0" type="bus"/>
    <trip id="bs_162" depart="1458.00" from="35950897#15" to="295408452#7" type="bus"/>
    <trip id="bs_163" depart="1467.00" from="695040105#3" to="-828678745#1" type="bus"/>
    <trip id="bs_164" depart="1476.00" from="295128790#4" to="1391330070#6" type="bus"/>
    <trip id="bs_165" depart="1485.00" from="295408462#10" to="689583171#12" type="bus"/>
    <trip id="bs_166" depart="1494.00" from="118570159#7" to="1279915921" type="bus"/>
    <trip id="bs_167" depart="1503.00" from="964171425#6" to="695295267#0" type="bus"/>
    <trip id="bs_168" depart="1512.00" from="1279915919" to="295408452#8" type="bus"/>
    <trip id="bs_169" depart="1521.00" from="1280614504#0" to="-39368999#9" type="bus"/>
    <trip id="bs_170" depart="1530.00" from="694601892" to="39368999#11" type="bus"/>
    <trip id="bs_171" depart="1539.00" from="695496039#3" to="199383481" type="bus"/>
    <trip id="bs_172" depart="1548.00" from="1210918872#1" to="256672294" type="bus"/>
    <trip id="bs_173" depart="1557.00" from="697200467#0" to="964171425#4" type="bus"/>
    <trip id="bs_174" depart="1566.00" from="160628085#1" to="118688839#2" type="bus"/>
    <trip id="bs_175" depart="1575.00" from="1280219261" to="-118672612#2" type="bus"/>
    <trip id="bs_176" depart="1584.00" from="295408460#2" to="295408462#1" type="bus"/>
    <trip id="bs_177" depart="1593.00" from="1282340717#2" to="1282340718" type="bus"/>
    <trip id="bs_178" depart="1602.00" from="-118566872#6" to="118570175" type="bus"/>
    <trip id="bs_179" depart="1611.00" from="295408462#8" to="295449627#0" type="bus"/>
    <trip id="bs_180" depart="1620.00" from="-39368999#9" to="295128790#0" type="bus"/>
    <trip id="bs_181" depart="1629.00" from="693885803#27" to="828724777#1" type="bus"/>
    <trip id="bs_182" depart="1638.00" from="695040105#3" to="910359052#9" type="bus"/>
    <trip id="bs_183" depart="1647.00" from="-35950868#4" to="35950864#3" type="bus"/>
    <trip id="bs_184" depart="1656.00" from="295408462#0" to="697822848#1" type="bus"/>
    <trip id="bs_185" depart="1665.00" from="295408459#5" to="694774375#0" type="bus"/>
    <trip id="bs_186" depart="1674.00" from="1280089201#1" to="408161670#27" type="bus"/>
    <trip id="bs_187" depart="1683.00" from="-39368999#12" to="910359052#8" type="bus"/>
    <trip id="bs_188" depart="1692.00" from="302751284#3" to="676465938#1" type="bus"/>
    <trip id="bs_189" depart="1701.00" from="694583900#0-AddedOffRampEdge" to="295408452#16-AddedOffRampEdge" type="bus"/>
    <trip id="bs_190" depart="1710.00" from="695510007#0" to="35950868#6" type="bus"/>
    <trip id="bs_191" depart="1719.00" from="694830397" to="160628085#1" type="bus"/>
    <trip id="bs_192" depart="1728.00" from="695490086#1" to="689583171#10" type="bus"/>
    <trip id="bs_193" depart="1737.00" from="1280219261" to="1279915921" type="bus"/>
    <trip id="bs_194" depart="1746.00" from="1165643361" to="1034027336#0" type="bus"/>
    <trip id="bs_195" depart="1755.00" from="694598419#0" to="372466115#0" type="bus"/>
    <trip id="bs_196" depart="1764.00" from="1210918872#1" to="35950925#6" type="bus"/>
    <trip id="bs_197" depart="1773.00" from="1280089201#2" to="693885803#17" type="bus"/>
    <trip id="bs_198" depart="1782.00" from="295408461#1" to="295408452#7" type="bus"/>
    <trip id="bs_199" depart="1791.00" from="295408452#7" to="372220804#21" type="bus"/>
    <trip id="bs_200" depart="1800.00" from="-373009311#1" to="828724737" type="bus"/>
    <trip id="bs_201" depart="1809.00" from="1282340735" to="695496039#2" type="bus"/>
    <trip id="bs_202" depart="1818.00" from="828724687" to="-35950868#6" type="bus"/>
    <trip id="bs_203" depart="1827.00" from="-561667993" to="-372220804#18" type="bus"/>
    <trip id="bs_204" depart="1836.00" from="1034028678" to="694594970#0" type="bus"/>
    <trip id="bs_205" depart="1845.00" from="676453139#1" to="696168834#0" type="bus"/>
    <trip id="bs_206" depart="1854.00" from="695490087#1" to="39368999#10" type="bus"/>
    <trip id="bs_207" depart="1863.00" from="295386152#1" to="695040105#3" type="bus"/>
    <trip id="bs_208" depart="1872.00" from="295408452#6" to="693885804#0" type="bus"/>
    <trip id="bs_209" depart="1881.00" from="295408452#11" to="35950925#7" type="bus"/>
    <trip id="bs_210" depart="1890.00" from="408161670#13" to="1280219260#0" type="bus"/>
    <trip id="bs_211" depart="1899.00" from="118570168#6" to="779462187#0" type="bus"/>
    <trip id="bs_212" depart="1908.00" from="372467090#0" to="302751295#4" type="bus"/>
    <trip id="bs_213" depart="1917.00" from="695502611#0" to="695040105#5" type="bus"/>
    <trip id="bs_214" depart="1926.00" from="-1387292390#3" to="695030266" type="bus"/>
    <trip id="bs_215" depart="1935.00" from="697822848#1" to="1280089201#0" type="bus"/>
    <trip id="bs_216" depart="1944.00" from="693885804#0" to="695510007#1" type="bus"/>
    <trip id="bs_217" depart="1953.00" from="-118555049#9" to="-118566872#3" type="bus"/>
    <trip id="bs_218" depart="1962.00" from="35950868#26" to="1034028675#0" type="bus"/>
    <trip id="bs_219" depart="1971.00" from="693885804#0" to="295408465#2" type="bus"/>
    <trip id="bs_220" depart="1980.00" from="-372220804#17" to="1391330070#0" type="bus"/>
    <trip id="bs_221" depart="1989.00" from="695040105#5" to="39368999#6" type="bus"/>
    <trip id="bs_222" depart="1998.00" from="689583171#4" to="1418093030" type="bus"/>
    <trip id="bs_223" depart="2007.00" from="828724747#0" to="828724794" type="bus"/>
    <trip id="bs_224" depart="2016.00" from="1280089201#2" to="673151142#4" type="bus"/>
    <trip id="bs_225" depart="2025.00" from="408161670#27" to="295408459#7" type="bus"/>
    <trip id="bs_226" depart="2034.00" from="-35950882#7" to="199383481" type="bus"/>
    <trip id="bs_227" depart="2043.00" from="-118672607#2" to="1280219260#1" type="bus"/>
    <trip id="bs_228" depart="2052.00" from="-828724779#1" to="-828678826#1" type="bus"/>
    <trip id="bs_229" depart="2061.00" from="-641077469" to="302751282" type="bus"/>
    <trip id="bs_230" depart="2070.00" from="1034028675#0" to="695544822" type="bus"/>
    <trip id="bs_231" depart="2079.00" from="693416739#0" to="694772625#0" type="bus"/>
    <trip id="bs_232" depart="2088.00" from="372464937#2" to="964171425#4" type="bus"/>
    <trip id="bs_233" depart="2097.00" from="-895450605" to="408161672#1" type="bus"/>
    <trip id="bs_234" depart="2106.00" from="295408464#0-AddedOffRampEdge" to="1280219260#1" type="bus"/>
    <trip id="bs_235" depart="2115.00" from="321069049#0" to="118688839#2" type="bus"/>
    <trip id="bs_236" depart="2124.00" from="302751284#3" to="408161670#18" type="bus"/>
    <trip id="bs_237" depart="2133.00" from="1034028677#1" to="295408452#16-AddedOffRampEdge" type="bus"/>
    <trip id="bs_238" depart="2142.00" from="697200467#9" to="-828724699#1" type="bus"/>
    <trip id="bs_239" depart="2151.00" from="39368999#2" to="695510007#0" type="bus"/>
    <trip id="bs_240" depart="2160.00" from="405113896#0" to="-828724779#0" type="bus"/>
    <trip id="bs_241" depart="2169.00" from="693885804#0" to="295408463#0" type="bus"/>
    <trip id="bs_242" depart="2178.00" from="1280089222" to="1210918873#1" type="bus"/>
    <trip id="bs_243" depart="2187.00" from="295408452#8" to="1280614485" type="bus"/>
    <trip id="bs_244" depart="2196.00" from="295408460#2" to="695040552#0" type="bus"/>
    <trip id="bs_245" depart="2205.00" from="295408468#0" to="-831070297#1" type="bus"/>
    <trip id="bs_246" depart="2214.00" from="372466118" to="-405962812#1" type="bus"/>
    <trip id="bs_247" depart="2223.00" from="696168834#1" to="695502614" type="bus"/>
    <trip id="bs_248" depart="2232.00" from="693885803#1" to="39368999#11" type="bus"/>
    <trip id="bs_249" depart="2241.00" from="-642050078#0" to="561913438#1" type="bus"/>
    <trip id="bs_250" depart="2250.00" from="1280219259#1" to="694600787" type="bus"/>
    <trip id="bs_251" depart="2259.00" from="372464931#3" to="695510007#0" type="bus"/>
    <trip id="bs_252" depart="2268.00" from="295408452#6" to="694775628#2" type="bus"/>
    <trip id="bs_253" depart="2277.00" from="295408452#0" to="295408477" type="bus"/>
    <trip id="bs_254" depart="2286.00" from="910359052#9" to="302751295#7" type="bus"/>
    <trip id="bs_255" depart="2295.00" from="828724821#1" to="1280089201#1" type="bus"/>
    <trip id="bs_256" depart="2304.00" from="-118673944#2" to="-118570159#2" type="bus"/>
    <trip id="bs_257" depart="2313.00" from="694583900#0-AddedOffRampEdge" to="295408462#12" type="bus"/>
    <trip id="bs_258" depart="2322.00" from="295408459#0" to="295128790#0" type="bus"/>
    <trip id="bs_259" depart="2331.00" from="964171425#6" to="1034028677#1" type="bus"/>
    <trip id="bs_260" depart="2340.00" from="1034028675#6" to="295394152#1" type="bus"/>
    <trip id="bs_261" depart="2349.00" from="295128790#4" to="779462187#0" type="bus"/>
    <trip id="bs_262" depart="2358.00" from="1210918872#1" to="561667998" type="bus"/>
    <trip id="bs_263" depart="2367.00" from="1280219259#1" to="302737424#1" type="bus"/>
    <trip id="bs_264" depart="2376.00" from="118673886#1" to="302751282" type="bus"/>
    <trip id="bs_265" depart="2385.00" from="1280219260#1" to="118566872#1" type="bus"/>
    <trip id="bs_266" depart="2394.00" from="828724816" to="828678799" type="bus"/>
    <trip id="bs_267" depart="2403.00" from="689583171#4" to="828724700#0" type="bus"/>
    <trip id="bs_268" depart="2412.00" from="693416427" to="1034028675#0" type="bus"/>
    <trip id="bs_269" depart="2421.00" from="697200467#11" to="-828724697#1" type="bus"/>
    <trip id="bs_270" depart="2430.00" from="697200467#1" to="1282340736" type="bus"/>
    <trip id="bs_271" depart="2439.00" from="1034028675#6" to="118573606#10" type="bus"/>
    <trip id="bs_272" depart="2448.00" from="408161670#24" to="694598419#1" type="bus"/>
    <trip id="bs_273" depart="2457.00" from="408161670#13" to="695446625#3" type="bus"/>
    <trip id="bs_274" depart="2466.00" from="-676489596#0" to="689583171#11" type="bus"/>
    <trip id="bs_275" depart="2475.00" from="295408461#4" to="160628085#1" type="bus"/>
    <trip id="bs_276" depart="2484.00" from="-676438753#1" to="302739240#4" type="bus"/>
    <trip id="bs_277" depart="2493.00" from="828678817#0" to="199383481-AddedOnRampEdge" type="bus"/>
    <trip id="bs_278" depart="2502.00" from="-118555049#9" to="779462187#0" type="bus"/>
    <trip id="bs_279" depart="2511.00" from="295408452#16-AddedOffRampEdge" to="695295265#0" type="bus"/>
    <trip id="bs_280" depart="2520.00" from="372464934#0" to="35950897#6" type="bus"/>
    <trip id="bs_281" depart="2529.00" from="-828678829" to="779462187#1" type="bus"/>
    <trip id="bs_282" depart="2538.00" from="408161670#24" to="828678790" type="bus"/>
    <trip id="bs_283" depart="2547.00" from="1280614504#0" to="-694715297" type="bus"/>
    <trip id="bs_284" depart="2556.00" from="693416739#3" to="-372467084#2" type="bus"/>
    <trip id="bs_285" depart="2565.00" from="295408452#16-AddedOffRampEdge" to="895499825" type="bus"/>
    <trip id="bs_286" depart="2574.00" from="695510007#1" to="695030266" type="bus"/>
    <trip id="bs_287" depart="2583.00" from="35950942#1" to="-118575968#1" type="bus"/>
    <trip id="bs_288" depart="2592.00" from="1392384120#0" to="-118673892#0" type="bus"/>
    <trip id="bs_289" depart="2601.00" from="698046188#1" to="1280614485" type="bus"/>
    <trip id="bs_290" depart="2610.00" from="695510007#1" to="673151142#3" type="bus"/>
    <trip id="bs_291" depart="2619.00" from="694583900#0" to="-828724700#3" type="bus"/>
    <trip id="bs_292" depart="2628.00" from="295408452#16-AddedOffRampEdge" to="35950925#3" type="bus"/>
    <trip id="bs_293" depart="2637.00" from="695446625#3" to="641466470" type="bus"/>
    <trip id="bs_294" depart="2646.00" from="1280089201#0" to="693885802#0" type="bus"/>
    <trip id="bs_295" depart="2655.00" from="1282340735" to="693885802#0" type="bus"/>
    <trip id="bs_296" depart="2664.00" from="1279915898#9" to="35950925#7" type="bus"/>
    <trip id="bs_297" depart="2673.00" from="696169688" to="697200467#9" type="bus"/>
    <trip id="bs_298" depart="2682.00" from="695446625#3" to="695295267#2" type="bus"/>
    <trip id="bs_299" depart="2691.00" from="694583900#0-AddedOffRampEdge" to="295408452#5" type="bus"/>
    <trip id="bs_300" depart="2700.00" from="1282340736" to="295408462#0" type="bus"/>
    <trip id="bs_301" depart="2709.00" from="695504114#4" to="1280614485" type="bus"/>
    <trip id="bs_302" depart="2718.00" from="694598419#1" to="35950868#27" type="bus"/>
    <trip id="bs_303" depart="2727.00" from="697200467#4" to="295408452#9" type="bus"/>
    <trip id="bs_304" depart="2736.00" from="302751284#3" to="118570175" type="bus"/>
    <trip id="bs_305" depart="2745.00" from="693885804#0" to="698046188#1" type="bus"/>
    <trip id="bs_306" depart="2754.00" from="-302751286#1" to="563780766" type="bus"/>
    <trip id="bs_307" depart="2763.00" from="828678785#0" to="295408452#6" type="bus"/>
    <trip id="bs_308" depart="2772.00" from="1447078728#1" to="828678826#2" type="bus"/>
    <trip id="bs_309" depart="2781.00" from="1282340718" to="321069035#0" type="bus"/>
    <trip id="bs_310" depart="2790.00" from="694601892" to="295449627#4" type="bus"/>
    <trip id="bs_311" depart="2799.00" from="-828724778" to="695502611#1" type="bus"/>
    <trip id="bs_312" depart="2808.00" from="828678912#3" to="676509076#0" type="bus"/>
    <trip id="bs_313" depart="2817.00" from="300949141" to="-828678780" type="bus"/>
    <trip id="bs_314" depart="2826.00" from="697200467#11" to="-118673921#2" type="bus"/>
    <trip id="bs_315" depart="2835.00" from="39354228#5" to="828678857" type="bus"/>
    <trip id="bs_316" depart="2844.00" from="698936203#8" to="372467080" type="bus"/>
    <trip id="bs_317" depart="2853.00" from="-372464931#2" to="295408452#6" type="bus"/>
    <trip id="bs_318" depart="2862.00" from="1124338482" to="408161670#25" type="bus"/>
    <trip id="bs_319" depart="2871.00" from="695502611#0" to="689583171#7" type="bus"/>
    <trip id="bs_320" depart="2880.00" from="689583171#3" to="695040105#5" type="bus"/>
    <trip id="bs_321" depart="2889.00" from="-35950882#2" to="-831070296" type="bus"/>
    <trip id="bs_322" depart="2898.00" from="1034028676#1" to="694598419#1-AddedOnRampEdge" type="bus"/>
    <trip id="bs_323" depart="2907.00" from="-828678831" to="-302751295#22" type="bus"/>
    <trip id="bs_324" depart="2916.00" from="-694715298" to="-35950942#1" type="bus"/>
    <trip id="bs_325" depart="2925.00" from="-828678788#1" to="295408461#9" type="bus"/>
    <trip id="bs_326" depart="2934.00" from="697200467#1" to="693885802#2" type="bus"/>
    <trip id="bs_327" depart="2943.00" from="910359052#3" to="1280219265" type="bus"/>
    <trip id="bs_328" depart="2952.00" from="35950897#13" to="695295267#2" type="bus"/>