<?xml version="1.0" encoding="UTF-8"?>

<!-- generated on 2026-03-16 23:17:43.331952 by Eclipse SUMO randomTrips.py v1.26.0
<configuration>
    <net-file value="F:\Newgeneration\FlowMindAI\sumo\danang\danang.net.xml"/>
    <additional-files value="F:\Newgeneration\FlowMindAI\sumo\danang\danang.vtypes.xml"/>
    <weights-prefix value="F:\Newgeneration\FlowMindAI\sumo\danang\danang.weights"/>
    <output-trip-file value="F:\Newgeneration\FlowMindAI\sumo\danang\danang.sv_.trips.xml"/>
    <prefix value="sv_"/>
    <trip-attributes value="type=&quot;car_suv&quot;"/>
    <fringe-factor value="5"/>
    <random value="True"/>
    <remove-loops value="True"/>
    <period value="7.2"/>
</configuration>
-->

<routes xmlns:xsi="http://www.w3.org/2001/XMLSchema-instance" xsi:noNamespaceSchemaLocation="http://sumo.dlr.de/xsd/routes_file.xsd">
    <trip id="sv_0" depart="0.00" from="295408452#16-AddedOffRampEdge" to="295408465#2-AddedOnRampEdge" type="car_suv"/>
    <trip id="sv_1" depart="7.20" from="694601892" to="295408452#6" type="car_suv"/>
    <trip id="sv_2" depart="14.40" from="-372464931#4" to="408161670#18" type="car_suv"/>
    <trip id="sv_3" depart="21.60" from="693416739#3" to="1391330071" type="car_suv"/>
    <trip id="sv_4" depart="28.80" from="160628085#0" to="295408459#5" type="car_suv"/>
    <trip id="sv_5" depart="36.00" from="118673944#0" to="693416427" type="car_suv"/>
    <trip id="sv_6" depart="43.20" from="295408452#16" to="295408465#2-AddedOnRampEdge" type="car_suv"/>
    <trip id="sv_7" depart="50.40" from="695490087#1" to="695502611#0" type="car_suv"/>
    <trip id="sv_8" depart="57.60" from="295408461#4" to="-828678741#1" type="car_suv"/>
    <trip id="sv_9" depart="64.80" from="-676509076#0" to="695504114#4" type="car_suv"/>
    <trip id="sv_10" depart="72.00" from="828724743" to="302751284#3" type="car_suv"/>
    <trip id="sv_11" depart="79.20" from="689583171#11" to="695502611#1" type="car_suv"/>
    <trip id="sv_12" depart="86.40" from="118575970#0" to="372220804#34" type="car_suv"/>
    <trip id="sv_13" depart="93.60" from="-765351891#0" to="695504114#0" type="car_suv"/>
    <trip id="sv_14" depart="100.80" from="642086911" to="695025562#0" type="car_suv"/>
    <trip id="sv_15" depart="108.00" from="1279915900#3" to="694775628#2" type="car_suv"/>
    <trip id="sv_16" depart="115.20" from="694830396" to="-560329293#1" type="car_suv"/>
    <trip id="sv_17" depart="122.40" from="1280219257#0" to="828724761" type="car_suv"/>
    <trip id="sv_18" depart="129.60" from="561913438#4" to="695446625#1" type="car_suv"/>
    <trip id="sv_19" depart="136.80" from="828678834" to="694775628#0" type="car_suv"/>
    <trip id="sv_20" depart="144.00" from="910359052#5" to="295408452#0" type="car_suv"/>
    <trip id="sv_21" depart="151.20" from="695295268" to="-828678746" type="car_suv"/>
    <trip id="sv_22" depart="158.40" from="-118566872#4" to="295408452#9" type="car_suv"/>
    <trip id="sv_23" depart="165.60" from="1282340737" to="1210918873#1" type="car_suv"/>
    <trip id="sv_24" depart="172.80" from="-828678799" to="1418093030" type="car_suv"/>
    <trip id="sv_25" depart="180.00" from="1282340772" to="695025562#0" type="car_suv"/>
    <trip id="sv_26" depart="187.20" from="696169688" to="-39368999#9" type="car_suv"/>
    <trip id="sv_27" depart="194.40" from="695502614" to="1280219261" type="car_suv"/>
    <trip id="sv_28" depart="201.60" from="160628085#1" to="1280219257#0" type="car_suv"/>
    <trip id="sv_29" depart="208.80" from="698936203#7" to="295408452#7" type="car_suv"/>
    <trip id="sv_30" depart="216.00" from="295408452#0" to="560329293#1" type="car_suv"/>
    <trip id="sv_31" depart="223.20" from="118672606#6" to="1280219266" type="car_suv"/>
    <trip id="sv_32" depart="230.40" from="-1076293830#0" to="-372467078#2" type="car_suv"/>
    <trip id="sv_33" depart="237.60" from="295408452#7" to="697200467#11" type="car_suv"/>
    <trip id="sv_34" depart="244.80" from="676453138#0" to="-828724763#5" type="car_suv"/>
    <trip id="sv_35" depart="252.00" from="1282340736" to="295408452#16-AddedOffRampEdge" type="car_suv"/>
    <trip id="sv_36" depart="259.20" from="295408459#3" to="295408452#8" type="car_suv"/>
    <trip id="sv_37" depart="266.40" from="-35950942#1" to="295408462#12" type="car_suv"/>
    <trip id="sv_38" depart="273.60" from="-828724795#0" to="35950925#6" type="car_suv"/>
    <trip id="sv_39" depart="280.80" from="302751284#0" to="910359052#3" type="car_suv"/>
    <trip id="sv_40" depart="288.00" from="1446429434#2" to="693416739#3" type="car_suv"/>
    <trip id="sv_41" depart="295.20" from="295449627#5" to="295408452#16" type="car_suv"/>
    <trip id="sv_42" depart="302.40" from="295408452#11" to="689583171#11" type="car_suv"/>
    <trip id="sv_43" depart="309.60" from="1280219257#0" to="-39368999#1" type="car_suv"/>
    <trip id="sv_44" depart="316.80" from="-118672464#4" to="372467078#0" type="car_suv"/>
    <trip id="sv_45" depart="324.00" from="695295267#2" to="828678867" type="car_suv"/>
    <trip id="sv_46" depart="331.20" from="295408452#8" to="-295386152#1" type="car_suv"/>
    <trip id="sv_47" depart="338.40" from="689583171#3" to="696169688" type="car_suv"/>
    <trip id="sv_48" depart="345.60" from="372464937#2" to="295449627#5" type="car_suv"/>
    <trip id="sv_49" depart="352.80" from="372589135#0" to="39368999#10" type="car_suv"/>
    <trip id="sv_50" depart="360.00" from="1280089201#1" to="695502611#0" type="car_suv"/>
    <trip id="sv_51" depart="367.20" from="-295408470#1" to="295408452#6" type="car_suv"/>
    <trip id="sv_52" depart="374.40" from="408161670#0" to="-118673886#1" type="car_suv"/>
    <trip id="sv_53" depart="381.60" from="35950925#2" to="695544822" type="car_suv"/>
    <trip id="sv_54" depart="388.80" from="1034028675#6" to="-39368999#13" type="car_suv"/>
    <trip id="sv_55" depart="396.00" from="694598419#1" to="-39368999#10" type="car_suv"/>
    <trip id="sv_56" depart="403.20" from="118570149#2" to="694775628#0" type="car_suv"/>
    <trip id="sv_57" depart="410.40" from="828678815" to="676438753#1" type="car_suv"/>
    <trip id="sv_58" depart="417.60" from="964171425#6" to="1279915897" type="car_suv"/>
    <trip id="sv_59" depart="424.80" from="343417844#0" to="694598419#0" type="car_suv"/>
    <trip id="sv_60" depart="432.00" from="295408463#1" to="35950864#3" type="car_suv"/>
    <trip id="sv_61" depart="439.20" from="35950868#1" to="695025562#0" type="car_suv"/>
    <trip id="sv_62" depart="446.40" from="1280614485" to="-698993299" type="car_suv"/>
    <trip id="sv_63" depart="453.60" from="118673921#5" to="295408461#4" type="car_suv"/>
    <trip id="sv_64" depart="460.80" from="1210918872#1" to="1280089201#1" type="car_suv"/>
    <trip id="sv_65" depart="468.00" from="295408452#0" to="695502613" type="car_suv"/>
    <trip id="sv_66" depart="475.20" from="118573606#2" to="295408452#5" type="car_suv"/>
    <trip id="sv_67" depart="482.40" from="-118570149#2" to="302751284#3" type="car_suv"/>
    <trip id="sv_68" depart="489.60" from="828678798#1" to="372467087#2" type="car_suv"/>
    <trip id="sv_69" depart="496.80" from="689583171#4" to="160628085#1" type="car_suv"/>
    <trip id="sv_70" depart="504.00" from="-828678911" to="1280219261" type="car_suv"/>
    <trip id="sv_71" depart="511.20" from="964171425#0" to="694772625#0" type="car_suv"/>
    <trip id="sv_72" depart="518.40" from="39368999#13" to="302751282" type="car_suv"/>
    <trip id="sv_73" depart="525.60" from="676455250#1" to="694600787" type="car_suv"/>
    <trip id="sv_74" depart="532.80" from="-35950864#5" to="35950897#13" type="car_suv"/>
    <trip id="sv_75" depart="540.00" from="694830397" to="295408459#5" type="car_suv"/>
    <trip id="sv_76" depart="547.20" from="694830397" to="118570175" type="car_suv"/>
    <trip id="sv_77" depart="554.40" from="697200467#10" to="408161670#24" type="car_suv"/>
    <trip id="sv_78" depart="561.60" from="1280219259#1" to="295408452#5" type="car_suv"/>
    <trip id="sv_79" depart="568.80" from="910359052#3" to="295408463#1" type="car_suv"/>
    <trip id="sv_80" depart="576.00" from="694772625#0" to="295408452#5" type="car_suv"/>
    <trip id="sv_81" depart="583.20" from="-39368999#14" to="695502611#0" type="car_suv"/>
    <trip id="sv_82" depart="590.40" from="695504114#0" to="302751282" type="car_suv"/>
    <trip id="sv_83" depart="597.60" from="1280614504#0" to="1279915896#0" type="car_suv"/>
    <trip id="sv_84" depart="604.80" from="295408462#10" to="-828724683" type="car_suv"/>
    <trip id="sv_85" depart="612.00" from="408161670#18" to="910359052#7" type="car_suv"/>
    <trip id="sv_86" depart="619.20" from="1034028675#6" to="561971012" type="car_suv"/>
    <trip id="sv_87" depart="626.40" from="695502614" to="1279915921" type="car_suv"/>
    <trip id="sv_88" depart="633.60" from="641397122#1" to="695510007#1" type="car_suv"/>
    <trip id="sv_89" depart="640.80" from="695025562#0" to="964171425#5" type="car_suv"/>
    <trip id="sv_90" depart="648.00" from="1282340719" to="118673892#1" type="car_suv"/>
    <trip id="sv_91" depart="655.20" from="561913438#2" to="695446625#3" type="car_suv"/>
    <trip id="sv_92" depart="662.40" from="695490086#1" to="295408468#4" type="car_suv"/>
    <trip id="sv_93" depart="669.60" from="-831070296" to="118672612#4" type="car_suv"/>
    <trip id="sv_94" depart="676.80" from="160628085#0" to="-39368999#0" type="car_suv"/>
    <trip id="sv_95" depart="684.00" from="295449627#5" to="698936203#5" type="car_suv"/>
    <trip id="sv_96" depart="691.20" from="118570175" to="372464935#4" type="car_suv"/>
    <trip id="sv_97" depart="698.40" from="295408459#7" to="302751282-AddedOnRampEdge" type="car_suv"/>
    <trip id="sv_98" depart="705.60" from="828724710" to="-372466114#0" type="car_suv"/>
    <trip id="sv_99" depart="712.80" from="695496042#0" to="828724695" type="car_suv"/>
    <trip id="sv_100" depart="720.00" from="160628085#1" to="695496039#3" type="car_suv"/>
    <trip id="sv_101" depart="727.20" from="408161670#25" to="-118672606#2" type="car_suv"/>
    <trip id="sv_102" depart="734.40" from="697200467#4" to="160628085#0" type="car_suv"/>
    <trip id="sv_103" depart="741.60" from="-828724769" to="295128790#0" type="car_suv"/>
    <trip id="sv_104" depart="748.80" from="695504114#0" to="295449627#4" type="car_suv"/>
    <trip id="sv_105" depart="756.00" from="39354228#6" to="-405113892#2" type="car_suv"/>
    <trip id="sv_106" depart="763.20" from="39368999#10" to="695496042#0" type="car_suv"/>
    <trip id="sv_107" depart="770.40" from="-118672607#0" to="-302751295#25" type="car_suv"/>
    <trip id="sv_108" depart="777.60" from="-35950868#10" to="295449627#4" type="car_suv"/>
    <trip id="sv_109" depart="784.80" from="697200467#11" to="828678802#1" type="car_suv"/>
    <trip id="sv_110" depart="792.00" from="35950897#13" to="295449627#5" type="car_suv"/>
    <trip id="sv_111" depart="799.20" from="910359052#0" to="35950897#13" type="car_suv"/>
    <trip id="sv_112" depart="806.40" from="1280219257#0" to="695490087#1" type="car_suv"/>
    <trip id="sv_113" depart="813.60" from="673151142#4" to="295128790#4" type="car_suv"/>
    <trip id="sv_114" depart="820.80" from="295449627#5" to="160628085#0" type="car_suv"/>
    <trip id="sv_115" depart="828.00" from="1282340731" to="1282340736" type="car_suv"/>
    <trip id="sv_116" depart="835.20" from="295408468#4" to="910359052#5" type="car_suv"/>
    <trip id="sv_117" depart="842.40" from="695025562#0" to="673151200#2" type="car_suv"/>
    <trip id="sv_118" depart="849.60" from="-35950959#11" to="1280219260#0" type="car_suv"/>
    <trip id="sv_119" depart="856.80" from="-561913437#4" to="693885804#0" type="car_suv"/>
    <trip id="sv_120" depart="864.00" from="-1447078728#0" to="673151145#0" type="car_suv"/>
    <trip id="sv_121" depart="871.20" from="295408452#16-AddedOffRampEdge" to="779462187#1" type="car_suv"/>
    <trip id="sv_122" depart="878.40" from="693885802#0" to="295408468#0" type="car_suv"/>
    <trip id="sv_123" depart="885.60" from="1280219259#0" to="1280219259#1" type="car_suv"/>
    <trip id="sv_124" depart="892.80" from="828724750" to="295408462#10" type="car_suv"/>
    <trip id="sv_125" depart="900.00" from="695496039#2" to="-302751295#33" type="car_suv"/>
    <trip id="sv_126" depart="907.20" from="1280219265" to="295408452#6" type="car_suv"/>
    <trip id="sv_127" depart="914.40" from="160628085#2" to="1280614485" type="car_suv"/>
    <trip id="sv_128" depart="921.60" from="695030266" to="1210918873#1" type="car_suv"/>
    <trip id="sv_129" depart="928.80" from="-828724769" to="-302751295#3" type="car_suv"/>
    <trip id="sv_130" depart="936.00" from="697200467#0" to="1282340717#1" type="car_suv"/>
    <trip id="sv_131" depart="943.20" from="-828724770" to="-641106174" type="car_suv"/>
    <trip id="sv_132" depart="950.40" from="695025560#0" to="295408452#6" type="car_suv"/>
    <trip id="sv_133" depart="957.60" from="295408462#1" to="1280219259#1" type="car_suv"/>
    <trip id="sv_134" depart="964.80" from="695496039#2" to="295128790#4" type="car_suv"/>
    <trip id="sv_135" depart="972.00" from="828678785#2" to="-35950850#10" type="car_suv"/>
    <trip id="sv_136" depart="979.20" from="828678903" to="199383481-AddedOnRampEdge" type="car_suv"/>
    <trip id="sv_137" depart="986.40" from="1279915898#2" to="1282340736" type="car_suv"/>
    <trip id="sv_138" depart="993.60" from="964171425#0" to="-35950864#16" type="car_suv"/>
    <trip id="sv_139" depart="1000.80" from="1280219260#1" to="828724765" type="car_suv"/>
    <trip id="sv_140" depart="1008.00" from="1280219260#1" to="694598419#1" type="car_suv"/>
    <trip id="sv_141" depart="1015.20" from="1282340737" to="695496039#3" type="car_suv"/>
    <trip id="sv_142" depart="1022.40" from="295408452#16-AddedOffRampEdge" to="673151142#3" type="car_suv"/>
    <trip id="sv_143" depart="1029.60" from="1034028675#2" to="964171425#4" type="car_suv"/>
    <trip id="sv_144" depart="1036.80" from="-828724750" to="408161670#13" type="car_suv"/>
    <trip id="sv_145" depart="1044.00" from="-295386152#9" to="118672612#4" type="car_suv"/>
    <trip id="sv_146" depart="1051.20" from="1034027336#0" to="695490086#1" type="car_suv"/>
    <trip id="sv_147" depart="1058.40" from="1280614504#0" to="295408452#10" type="car_suv"/>
    <trip id="sv_148" depart="1065.60" from="39368999#2" to="295408452#1" type="car_suv"/>
    <trip id="sv_149" depart="1072.80" from="693885802#2" to="676712671" type="car_suv"/>
    <trip id="sv_150" depart="1080.00" from="39368999#17" to="1034028675#6" type="car_suv"/>
    <trip id="sv_151" depart="1087.20" from="118672612#2" to="695030266" type="car_suv"/>
    <trip id="sv_152" depart="1094.40" from="695040552#1" to="295408462#10" type="car_suv"/>
    <trip id="sv_153" depart="1101.60" from="1282340752" to="295408462#10" type="car_suv"/>
    <trip id="sv_154" depart="1108.80" from="1255578181" to="199383481-AddedOnRampEdge" type="car_suv"/>
    <trip id="sv_155" depart="1116.00" from="295128790#4" to="302751284#0" type="car_suv"/>
    <trip id="sv_156" depart="1123.20" from="695502611#0" to="694600787" type="car_suv"/>
    <trip id="sv_157" depart="1130.40" from="562634342" to="695502613" type="car_suv"/>
    <trip id="sv_158" depart="1137.60" from="372464933#1" to="-39354228#3" type="car_suv"/>
    <trip id="sv_159" depart="1144.80" from="1280219259#0" to="693885803#1" type="car_suv"/>
    <trip id="sv_160" depart="1152.00" from="35950897#6" to="295449625#0" type="car_suv"/>
    <trip id="sv_161" depart="1159.20" from="1279915897" to="1210918873#1" type="car_suv"/>
    <trip id="sv_162" depart="1166.40" from="295408452#5" to="-695446623#1" type="car_suv"/>
    <trip id="sv_163" depart="1173.60" from="693885804#0" to="199383481-AddedOnRampEdge" type="car_suv"/>
    <trip id="sv_164" depart="1180.80" from="694830397" to="695504114#0" type="car_suv"/>
    <trip id="sv_165" depart="1188.00" from="697822848#0" to="-828724747#0" type="car_suv"/>
    <trip id="sv_166" depart="1195.20" from="1280219260#0" to="1034028675#2" type="car_suv"/>
    <trip id="sv_167" depart="1202.40" from="693330103#0" to="693330103#0" type="car_suv"/>
    <trip id="sv_168" depart="1209.60" from="828678750#1" to="694600787" type="car_suv"/>
    <trip id="sv_169" depart="1216.80" from="698936203#3" to="-372220804#16" type="car_suv"/>
    <trip id="sv_170" depart="1224.00" from="-641423230" to="694772625#0" type="car_suv"/>
    <trip id="sv_171" depart="1231.20" from="696169688" to="-118575967" type="car_suv"/>
    <trip id="sv_172" depart="1238.40" from="698936203#0" to="828678873" type="car_suv"/>
    <trip id="sv_173" depart="1245.60" from="-676438752#1" to="295408468#0" type="car_suv"/>
    <trip id="sv_174" depart="1252.80" from="1210918872#1" to="964171425#5" type="car_suv"/>
    <trip id="sv_175" depart="1260.00" from="1034028677#0" to="828724714#1" type="car_suv"/>
    <trip id="sv_176" depart="1267.20" from="295408461#4" to="-1446429434#3" type="car_suv"/>
    <trip id="sv_177" depart="1274.40" from="-643237807#1" to="344658497#3" type="car_suv"/>
    <trip id="sv_178" depart="1281.60" from="295449627#5" to="295408452#5" type="car_suv"/>
    <trip id="sv_179" depart="1288.80" from="-673151179#1" to="1282340717#0" type="car_suv"/>
    <trip id="sv_180" depart="1296.00" from="118575975#1" to="831070297#0" type="car_suv"/>
    <trip id="sv_181" depart="1303.20" from="694601892" to="695502613" type="car_suv"/>
    <trip id="sv_182" depart="1310.40" from="295408452#5" to="695496039#2" type="car_suv"/>
    <trip id="sv_183" depart="1317.60" from="295408452#16-AddedOffRampEdge" to="-641397118" type="car_suv"/>
    <trip id="sv_184" depart="1324.80" from="1034028675#6" to="695490086#1" type="car_suv"/>
    <trip id="sv_185" depart="1332.00" from="295408462#12" to="828678822#0" type="car_suv"/>
    <trip id="sv_186" depart="1339.20" from="295408462#1" to="910359052#7" type="car_suv"/>
    <trip id="sv_187" depart="1346.40" from="-39354228#8" to="295408466#1" type="car_suv"/>
    <trip id="sv_188" depart="1353.60" from="696168834#1" to="39368999#11" type="car_suv"/>
    <trip id="sv_189" depart="1360.80" from="1280219261" to="1280614485" type="car_suv"/>
    <trip id="sv_190" depart="1368.00" from="695446623#1" to="1034028676#1" type="car_suv"/>
    <trip id="sv_191" depart="1375.20" from="910359052#0" to="118570172#0" type="car_suv"/>
    <trip id="sv_192" depart="1382.40" from="-39368999#15" to="118672619#4" type="car_suv"/>
    <trip id="sv_193" depart="1389.60" from="1361140406" to="695295267#2" type="car_suv"/>
    <trip id="sv_194" depart="1396.80" from="-118570183#3" to="695446625#1" type="car_suv"/>
    <trip id="sv_195" depart="1404.00" from="408161670#22" to="695502611#0" type="car_suv"/>
    <trip id="sv_196" depart="1411.20" from="295128790#4" to="295408452#6" type="car_suv"/>
    <trip id="sv_197" depart="1418.40" from="694774375#0" to="-828724705#1" type="car_suv"/>
    <trip id="sv_198" depart="1425.60" from="295408459#5" to="964171425#4" type="car_suv"/>
    <trip id="sv_199" depart="1432.80" from="694830396" to="-118672606#0" type="car_suv"/>
    <trip id="sv_200" depart="1440.00" from="695040105#0" to="-372466120#0" type="car_suv"/>
    <trip id="sv_201" depart="1447.20" from="693885804#0" to="295408452#16" type="car_suv"/>
    <trip id="sv_202" depart="1454.40" from="302739240#4" to="295408461#1" type="car_suv"/>
    <trip id="sv_203" depart="1461.60" from="-828724727" to="964171425#0" type="car_suv"/>
    <trip id="sv_204" depart="1468.80" from="295449627#4" to="828678777#0" type="car_suv"/>
    <trip id="sv_205" depart="1476.00" from="1280219265" to="295408452#9" type="car_suv"/>
    <trip id="sv_206" depart="1483.20" from="694830397" to="-828724752#1" type="car_suv"/>
    <trip id="sv_207" depart="1490.40" from="693416427" to="1280089201#0" type="car_suv"/>
    <trip id="sv_208" depart="1497.60" from="693885804#0" to="118673944#6" type="car_suv"/>
    <trip id="sv_209" depart="1504.80" from="693885804#0" to="35950897#6" type="car_suv"/>
    <trip id="sv_210" depart="1512.00" from="828678864" to="302751282-AddedOnRampEdge" type="car_suv"/>
    <trip id="sv_211" depart="1519.20" from="689583178#5" to="160628085#2" type="car_suv"/>
    <trip id="sv_212" depart="1526.40" from="694830395#0" to="697200467#11" type="car_suv"/>
    <trip id="sv_213" depart="1533.60" from="-695446623#1" to="695502614" type="car_suv"/>
    <trip id="sv_214" depart="1540.80" from="695040102#0" to="1418093030" type="car_suv"/>
    <trip id="sv_215" depart="1548.00" from="697200467#10" to="35950883#4" type="car_suv"/>
    <trip id="sv_216" depart="1555.20" from="910359052#0" to="779462187#1" type="car_suv"/>
    <trip id="sv_217" depart="1562.40" from="295128790#0" to="295449622#0" type="car_suv"/>
    <trip id="sv_218" depart="1569.60" from="693416739#3" to="694737115#1" type="car_suv"/>
    <trip id="sv_219" depart="1576.80" from="295408462#10" to="-118673929#6" type="car_suv"/>
    <trip id="sv_220" depart="1584.00" from="-302751295#21" to="408161672#1" type="car_suv"/>
    <trip id="sv_221" depart="1591.20" from="1282340731" to="-676450957" type="car_suv"/>
    <trip id="sv_222" depart="1598.40" from="-828678803#1" to="1280219260#1" type="car_suv"/>
    <trip id="sv_223" depart="1605.60" from="697200467#1" to="694774375#0" type="car_suv"/>
    <trip id="sv_224" depart="1612.80" from="695030266" to="199383481-AddedOnRampEdge" type="car_suv"/>
    <trip id="sv_225" depart="1620.00" from="-828678780" to="828678788#2" type="car_suv"/>
    <trip id="sv_226" depart="1627.20" from="1391330071" to="561667996#0" type="car_suv"/>
    <trip id="sv_227" depart="1634.40" from="694583900#0" to="694583900#0-AddedOffRampEdge" type="car_suv"/>
    <trip id="sv_228" depart="1641.60" from="295449625#0" to="295408452#0" type="car_suv"/>
    <trip id="sv_229" depart="1648.80" from="697869050#0" to="895449538" type="car_suv"/>
    <trip id="sv_230" depart="1656.00" from="1034028677#1" to="1034028677#0" type="car_suv"/>
    <trip id="sv_231" depart="1663.20" from="295408459#0" to="1034028675#0" type="car_suv"/>
    <trip id="sv_232" depart="1670.40" from="1282340731" to="408161672#0" type="car_suv"/>
    <trip id="sv_233" depart="1677.60" from="694830397" to="828678785#2" type="car_suv"/>
    <trip id="sv_234" depart="1684.80" from="765351891#2" to="1034028676#0" type="car_suv"/>
    <trip id="sv_235" depart="1692.00" from="295408452#6" to="695502611#1" type="car_suv"/>
    <trip id="sv_236" depart="1699.20" from="695030266" to="408161672#0" type="car_suv"/>
    <trip id="sv_237" depart="1706.40" from="643237805" to="1280089201#1" type="car_suv"/>
    <trip id="sv_238" depart="1713.60" from="1034028675#6" to="-372589135#1" type="car_suv"/>
    <trip id="sv_239" depart="1720.80" from="408161670#20" to="35950897#6" type="car_suv"/>
    <trip id="sv_240" depart="1728.00" from="-118575968#5" to="408161672#0" type="car_suv"/>
    <trip id="sv_241" depart="1735.20" from="118673921#3" to="828724712" type="car_suv"/>
    <trip id="sv_242" depart="1742.40" from="408161670#27" to="695510007#0" type="car_suv"/>
    <trip id="sv_243" depart="1749.60" from="693416739#3" to="689583171#7" type="car_suv"/>
    <trip id="sv_244" depart="1756.80" from="1280089222" to="118555049#17" type="car_suv"/>
    <trip id="sv_245" depart="1764.00" from="408161670#0" to="-828678901" type="car_suv"/>
    <trip id="sv_246" depart="1771.20" from="-641397119#1" to="295408463#1" type="car_suv"/>
    <trip id="sv_247" depart="1778.40" from="1034028675#2" to="118570175" type="car_suv"/>
    <trip id="sv_248" depart="1785.60" from="695510007#1" to="697200467#1" type="car_suv"/>
    <trip id="sv_249" depart="1792.80" from="295408461#1" to="694772625#0" type="car_suv"/>
    <trip id="sv_250" depart="1800.00" from="-828724763#0" to="160628085#1" type="car_suv"/>
    <trip id="sv_251" depart="1807.20" from="302751284#0" to="697200467#1" type="car_suv"/>
    <trip id="sv_252" depart="1814.40" from="295408452#5" to="295408461#1" type="car_suv"/>
    <trip id="sv_253" depart="1821.60" from="1280219259#1" to="695490087#1" type="car_suv"/>
    <trip id="sv_254" depart="1828.80" from="39368999#13" to="-695054805#0" type="car_suv"/>
    <trip id="sv_255" depart="1836.00" from="562701500" to="295408468#4" type="car_suv"/>
    <trip id="sv_256" depart="1843.20" from="693416739#3" to="302751282-AddedOnRampEdge" type="car_suv"/>
    <trip id="sv_257" depart="1850.40" from="696168834#1" to="693885804#0" type="car_suv"/>
    <trip id="sv_258" depart="1857.60" from="408161670#0" to="693416739#0" type="car_suv"/>
    <trip id="sv_259" depart="1864.80" from="-828724768#4" to="295408459#5" type="car_suv"/>
    <trip id="sv_260" depart="1872.00" from="695040105#3" to="295408460#3" type="car_suv"/>
    <trip id="sv_261" depart="1879.20" from="1391330070#4" to="372220804#4" type="car_suv"/>
    <trip id="sv_262" depart="1886.40" from="-35950868#16" to="693885804#0" type="car_suv"/>
    <trip id="sv_263" depart="1893.60" from="695496039#2" to="828678769#1" type="car_suv"/>
    <trip id="sv_264" depart="1900.80" from="118570175" to="697200467#10" type="car_suv"/>
    <trip id="sv_265" depart="1908.00" from="295408452#1" to="1282340735" type="car_suv"/>
    <trip id="sv_266" depart="1915.20" from="910359052#9" to="118570175" type="car_suv"/>
    <trip id="sv_267" depart="1922.40" from="694830396" to="35950897#10" type="car_suv"/>
    <trip id="sv_268" depart="1929.60" from="1280089201#2" to="-1361140406" type="car_suv"/>
    <trip id="sv_269" depart="1936.80" from="-641436976" to="39368999#11" type="car_suv"/>
    <trip id="sv_270" depart="1944.00" from="1034028675#0" to="-39368999#13" type="car_suv"/>
    <trip id="sv_271" depart="1951.20" from="160628085#1" to="-405113892#2" type="car_suv"/>
    <trip id="sv_272" depart="1958.40" from="35950939" to="694598419#1-AddedOnRampEdge" type="car_suv"/>
    <trip id="sv_273" depart="1965.60" from="-39368999#14" to="694598419#1-AddedOnRampEdge" type="car_suv"/>
    <trip id="sv_274" depart="1972.80" from="35950868#15" to="-828724790#0" type="car_suv"/>
    <trip id="sv_275" depart="1980.00" from="-118570172#2" to="-894924691" type="car_suv"/>
    <trip id="sv_276" depart="1987.20" from="1210918872#1" to="408161670#22" type="car_suv"/>
    <trip id="sv_277" depart="1994.40" from="-321069049#0" to="-1255578181" type="car_suv"/>
    <trip id="sv_278" depart="2001.60" from="-642098832#0" to="295449619#1" type="car_suv"/>
    <trip id="sv_279" depart="2008.80" from="302739240#4" to="-828678869#0" type="car_suv"/>
    <trip id="sv_280" depart="2016.00" from="-118672606#0" to="302751282" type="car_suv"/>
    <trip id="sv_281" depart="2023.20" from="1034028676#0" to="-343237264#0" type="car_suv"/>
    <trip id="sv_282" depart="2030.40" from="118566872#13" to="302751282-AddedOnRampEdge" type="car_suv"/>
    <trip id="sv_283" depart="2037.60" from="693416739#3" to="695295267#2" type="car_suv"/>
    <trip id="sv_284" depart="2044.80" from="-828678874#0" to="-641487801" type="car_suv"/>
    <trip id="sv_285" depart="2052.00" from="295408462#12" to="1034028675#0" type="car_suv"/>
    <trip id="sv_286" depart="2059.20" from="1280219261" to="694601892" type="car_suv"/>
    <trip id="sv_287" depart="2066.40" from="693885804#0" to="694601892" type="car_suv"/>
    <trip id="sv_288" depart="2073.60" from="295408464#0-AddedOffRampEdge" to="694775628#2" type="car_suv"/>
    <trip id="sv_289" depart="2080.80" from="295408452#0" to="-828678786" type="car_suv"/>
    <trip id="sv_290" depart="2088.00" from="35950959#2" to="405113892#3" type="car_suv"/>
    <trip id="sv_291" depart="2095.20" from="35950864#28" to="295408462#12" type="car_suv"/>
    <trip id="sv_292" depart="2102.40" from="1280614485" to="694600787" type="car_suv"/>
    <trip id="sv_293" depart="2109.60" from="641082247" to="295408465#2" type="car_suv"/>
    <trip id="sv_294" depart="2116.80" from="673151142#3" to="964171425#6" type="car_suv"/>
    <trip id="sv_295" depart="2124.00" from="828724776" to="118573606#2" type="car_suv"/>
    <trip id="sv_296" depart="2131.20" from="695295267#2" to="295449627#4" type="car_suv"/>
    <trip id="sv_297" depart="2138.40" from="295408462#1" to="693885803#27" type="car_suv"/>
    <trip id="sv_298" depart="2145.60" from="372464931#3" to="1034028678" type="car_suv"/>
    <trip id="sv_299" depart="2152.80" from="828724714#0" to="408161670#18" type="car_suv"/>
    <trip id="sv_300" depart="2160.00" from="-828724756#0" to="694598419#0" type="car_suv"/>
    <trip id="sv_301" depart="2167.20" from="695510007#0" to="-642354268#3" type="car_suv"/>
    <trip id="sv_302" depart="2174.40" from="35950868#32" to="697200467#11" type="car_suv"/>
    <trip id="sv_303" depart="2181.60" from="295408463#1" to="828678739" type="car_suv"/>
    <trip id="sv_304" depart="2188.80" from="295408468#4" to="295408462#12" type="car_suv"/>
    <trip id="sv_305" depart="2196.00" from="295408463#1" to="295408452#16-AddedOffRampEdge" type="car_suv"/>
    <trip id="sv_306" depart="2203.20" from="295449625#0" to="118575975#2" type="car_suv"/>
    <trip id="sv_307" depart="2210.40" from="35950897#15" to="295408461#0" type="car_suv"/>
    <trip id="sv_308" depart="2217.60" from="695040105#3" to="1282340719" type="car_suv"/>
    <trip id="sv_309" depart="2224.80" from="35950864#14" to="372467078#3" type="car_suv"/>
    <trip id="sv_310" depart="2232.00" from="1034027336#2" to="302751282" type="car_suv"/>
    <trip id="sv_311" depart="2239.20" from="1280089201#2" to="35950897#0" type="car_suv"/>
    <trip id="sv_312" depart="2246.40" from="698936203#5" to="295408470#2" type="car_suv"/>
    <trip id="sv_313" depart="2253.60" from="302751284#0" to="295408452#11" type="car_suv"/>
    <trip id="sv_314" depart="2260.80" from="828724797#0" to="295408462#1" type="car_suv"/>
    <trip id="sv_315" depart="2268.00" from="295408452#6" to="-372464931#2" type="car_suv"/>