<?xml version='1.0' encoding='utf-8'?>
<routes xmlns:xsi="http://www.w3.org/2001/XMLSchema-instance" xsi:noNamespaceSchemaLocation="http://sumo.dlr.de/xsd/routes_file.xsd">
    <vType id="motorbike" length="2.20" maxSpeed="11.11" speedFactor="normc(1.00,0.15,0.20,2.00)" vClass="motorcycle" guiShape="motorcycle" width="0.80" color="230,179,51" accel="3.0" decel="4.5" sigma="0.7" />
    <vehicle id="ma_0" type="motorbike" depart="0.00">
        <route edges="-118672634 -35950942#1 -35950942#0 302751295#9 372466117#0 372466117#1 372466117#2 372466117#3 -1160396738 372466116#0 372466116#1 562701507#0 562701507#1 -118673937#4 -118673937#3 -118673937#2 -39368999#16 -39368999#15 -39368999#14 -39368999#13" />
    </vehicle>
    <vType id="motorbike2" length="2.00" maxSpeed="12.50" speedFactor="normc(1.10,0.20,0.20,2.00)" vClass="motorcycle" guiShape="motorcycle" width="0.70" color="51,153,230" accel="3.5" decel="5.0" sigma="0.8" />
    <vType id="car" length="4.50" maxSpeed="13.89" speedFactor="normc(1.00,0.10,0.20,2.00)" vClass="passenger" guiShape="passenger" width="1.80" color="51,153,230" accel="2.5" decel="4.0" sigma="0.5" />
    <vType id="car_suv" length="4.80" maxSpeed="13.89" speedFactor="normc(1.00,0.10,0.20,2.00)" vClass="passenger" guiShape="passenger/sedan" width="2.00" color="204,51,51" accel="2.2" decel="3.8" sigma="0.5" />
    <vehicle id="sv_0" type="car_suv" depart="0.00">
        <route edges="828678909#0 -828678909#1 -695090346#0 -35950868#2 -35950868#0 -695510008#3 -695510008#1 -695510008#0 1282340739 118567494 1279915919 1279915896#0 1279915896#1 35950883#0 35950883#1 35950883#4 35950883#7 35950883#9 372220804#0 372220804#1 372220804#2 -118570167#1 -118570174#1 295449620" />
    </vehicle>
    <vType id="taxi" length="4.50" maxSpeed="13.89" speedFactor="normc(0.90,0.10,0.20,2.00)" vClass="passenger" guiShape="passenger/sedan" width="1.80" color="255,255,51" accel="2.5" decel="4.0" sigma="0.4" />
    <vType id="bus" length="12.00" maxSpeed="11.11" speedFactor="normc(0.80,0.05,0.20,2.00)" vClass="bus" guiShape="bus" width="2.50" color="51,204,77" accel="1.5" decel="3.0" sigma="0.4" />
    <vType id="truck" length="10.00" maxSpeed="8.33" speedFactor="normc(0.70,0.10,0.20,2.00)" vClass="truck" guiShape="truck" width="2.50" color="179,77,77" accel="1.2" decel="3.0" sigma="0.4" />
    <vehicle id="tk_0" type="truck" depart="0.00">
        <route edges="295408452#11 295408452#16 295408452#16-AddedOffRampEdge 1034028675#0 35950882#1 35950882#3 -561426521 -118672633#3 -118672633#2 -118672633#1 -118672633#0 -676467950 -561474249#1 302751295#12 302751295#13 302751295#15 35950864#0 35950864#3 35950864#6 35950864#8 35950864#14 35950864#17 35950864#18 35950864#19 35950864#21 35950864#22 35950864#23 35950864#24 35950864#25 35950864#28 35950864#30 -642086911 295408466#0 -118673929#9 -118673929#6 -118673929#4 -118673929#2 -118673929#1 -118673929#0 695502613 828724821#0" />
    </vehicle>
    <vType id="delivery" length="6.00" maxSpeed="11.11" speedFactor="normc(0.85,0.10,0.20,2.00)" vClass="truck" guiShape="truck" width="2.20" color="153,102,51" accel="1.8" decel="3.5" sigma="0.5" />
    <vehicle id="mx_1" type="motorbike2" depart="1.58">
        <route edges="1034027336#0 910359052#0 910359052#3 910359052#5 910359052#7 910359052#8 910359052#9 697200467#0 697200467#1 697200467#4 697200467#4-AddedOffRampEdge 697200467#7 697200467#8 697200467#9 697200467#10 697200467#11 1280089201#2 1280219265 694601892 695295267#0 695295267#2 695295265#0 295408460#2 295408460#3 1280219259#0 1280219259#1 295408468#0 295408468#4 295408468#5 295408468#6 1280219267 695496040 1280614505#0 1280614505#1" />
    </vehicle>
    <vehicle id="ca_1" type="car" depart="3.00">
        <route edges="1426764507#0 1426764507#2 35950897#0 35950897#1 35950897#6 -118575968#5 -118575968#1 765351891#0 765351891#2 765351891#4 1279915898#0 1279915898#2 1279915898#5 -828724731 828724731 -1279915898#5" />
    </vehicle>
    <vehicle id="ma_5" type="motorbike" depart="4.00">
        <route edges="118570159#9 118570159#10 118570159#11 118570159#12 118570159#14 118570159#15 118570159#16 -372220804#31 -118575976#1 -118575976#0 -118566872#2 -118566872#1 -118566872#0 -39368999#3 -118570183#3 -118570183#2 -118570183#1 -118570183#0 35950959#9 -118575974#4 35950864#30 -642086911 295408466#0 295408466#1 1280219259#1 1280219266 1280219260#0 673151198#0 673151198#1 673151198#3 1160316964 118673944#0 118673944#1 118673919#0 118673919#2 118673921#0 118673921#1 118673921#2 118673921#3" />
    </vehicle>
    <vehicle id="ma_7" type="motorbike" depart="5.60">
        <route edges="-676494208 -372463312 696756023 696755556#1 695040552#0 695040552#1 1279915919 1279915896#0 1279915896#1 1282715056 696168834#0 696168834#1 696169688 696169687#1 695446625#0 695446625#1 695446625#3 695429325#1 39368999#1 39368999#2 -118570183#3 -118570183#2 -118570183#1 -118570183#0 35950959#9 -118575974#4 35950864#30 -642086911 295408466#0 295408466#1 1280219259#1 1280219266 1280219260#0 1280219260#1" />
    </vehicle>
    <vehicle id="ma_8" type="motorbike" depart="6.40">
        <route edges="-118575975#3 -118575975#2 -118575975#1 -118575975#0 118575972#5 689583171#11 689583171#12 689583171#15 695025560#0 695025560#1 256668722 1096471623#0 35950897#0 35950897#1 35950897#6 35950897#10 35950897#13 35950897#15" />
    </vehicle>
    <vehicle id="tx_1" type="taxi" depart="7.50">
        <route edges="-295408470#1 676439266 -321069035#5 641487801 295408470#1 295408470#2 673632547 160628085#2 1280089222 1280089201#0 1280089201#1 1280089201#2 -694715298 -694715297 -39368999#21 -39368999#20 -39368999#16 -39368999#15 -39368999#14 -39368999#13 -39368999#12 -39368999#10 -39368999#9 -39368999#8 -39368999#5 -39368999#3 -39368999#2 -39368999#1 -39368999#0 695446623#0 695446623#1" />
    </vehicle>
    <vehicle id="ma_11" type="motorbike" depart="8.80">
        <route edges="695295265#0 295408460#2 828724790#1 642086911 -35950864#30 118575974#1 -35950959#11 118570183#0 118570183#1 118570183#2 118570183#3 -39368999#2 -39368999#1 -39368999#0 695504114#4 295449627#0 295449627#2 295449627#3 295449627#4 295449627#5 698046188#1 1279915897 1282340739 695510007#0 695510007#1 295128790#0 295128790#3 295128790#4 295128790#10" />
    </vehicle>
    <vehicle id="mx_6" type="motorbike2" depart="9.48">
        <route edges="562701502#1 -828678801#0 828678801#0 -562701502#1 -562701502#0 -118570181#9 -118570181#8 -118570181#7 -118570181#6 -118570181#5 -118570181#4 -118570181#3 -118570181#2 -118570181#1 -35950868#12 -35950868#10 -35950868#9 -35950868#8 -35950868#7 -35950868#6 -35950868#5 -35950868#4 -35950868#3 695090346#0 695090346#1 695090346#2 695090346#3 695090346#4" />
    </vehicle>
    <vehicle id="mx_7" type="motorbike2" depart="11.06">
        <route edges="641397123#0 1391330070#4 1391330070#6 1391330070#9 1391330070#12 1391330069#0 -1282340714 -676461674 -302739242#2 -302739242#0 -118575969#1 -118575969#0 -118555049#1 -118555049#0 1279915898#0 1279915898#2 1279915898#5 1279915898#6 1279915898#9 -35950868#38 -35950868#37 -35950868#36 -35950868#35 -35950868#33 -35950868#31 -35950868#30 -35950868#29 -35950868#28 -35950868#26 -35950868#25 -35950868#23 -35950868#22 -35950868#21 -35950868#20 -35950868#19 -35950868#18 -35950868#17 118570159#0 118570159#3 118570159#4 118570159#6 118570159#7 118570159#8 118570159#9 118570159#10 118570159#11 118570159#12 118570159#14 118570159#15 118570159#16 676451738#0 676451738#1" />
    </vehicle>
    <vehicle id="ca_4" type="car" depart="12.00">
        <route edges="695446625#0 695446625#1 695446625#3 695429325#1 39368999#1 39368999#2 39368999#3 39368999#4 39368999#6 39368999#9 39368999#10 39368999#11 39368999#13 39368999#14 39368999#15 39368999#16 118673937#0 118673937#3 118673937#4 -562701507#1 -562701507#0 828724768#0 828724768#1 828724764#0 828724764#1" />
    </vehicle>
    <vehicle id="mx_8" type="motorbike2" depart="12.64">
        <route edges="-39368999#20 -39368999#16 -39368999#15 -39368999#14 695544823 -372220804#34 -372220804#33 -372220804#32 -372220804#31 -372220804#30 -372220804#29 -372220804#28 -372220804#27 -372220804#22 -372220804#21 -372220804#20 -372220804#19 -372220804#18 -372220804#17 -372220804#16 -372220804#15 295449627#3 295449627#4 295449627#5 698046188#1 1279915897 1282340739 695510007#0 695510007#1 295128790#0 295128790#3 295128790#4 295128790#10 693885804#0 693885804#2" />
    </vehicle>
    <vehicle id="mx_9" type="motorbike2" depart="14.22">
        <route edges="828724723 302751295#5 302751295#6 302751295#7 -562634341 118672633#1 118672633#2 118672633#3 561426521 -35950882#5 -35950882#2 1034028675#2 1034028675#6 1034027336#2 1282340718 1282340717#0 694772625#0" />
    </vehicle>
    <vehicle id="sv_2" type="car_suv" depart="15.00">
        <route edges="-1279259377#1 -1279259377#0 -828724725#1 -372466114#3 -372466114#2 -372466114#0 372464937#1 372464937#2 372464937#5 -302751295#1 -302751295#0 -1279915898#9 -1279915898#8 -1279915898#5 -1279915898#3 -1279915898#1 -765351891#4 -765351891#3 -765351891#0 118575968#0 118575968#2 302751284#0 -676458405#3" />
    </vehicle>
    <vehicle id="mx_10" type="motorbike2" depart="15.80">
        <route edges="295128790#3 1279915895#1 408161670#0 -372467078#4 -372467078#2 -372467078#1 -372467078#0 -35950868#8 -35950868#7 -35950868#6 -35950868#5 -35950868#4 -35950868#3 -35950868#2 -35950868#0 -695510008#3 -695510008#1 -695510008#0 1282340739 695510007#0 695510007#1" />
    </vehicle>
    <vehicle id="mx_11" type="motorbike2" depart="17.38">
        <route edges="295408464#0-AddedOffRampEdge 1280614504#0 1280614504#1 1280614504#2 1280219250 1280219258#0 295408463#0 295408463#1 1280219260#0 1280219260#1 295408462#0 295408462#1 295408462#8 295408462#10 295408462#12 1282340737 1282340736 160628085#0 160628085#1 160628085#2 1280089222 1280089201#0 295408452#0 295408452#1 295408452#5 295408452#6 295408452#7 295408452#8 295408452#9 -302751295#23 -302751295#22 -302751295#21 -302751295#20" />
    </vehicle>
    <vehicle id="ma_23" type="motorbike" depart="18.40">
        <route edges="828724681 -372464935#1 -372464935#0 560454395 -372466117#0 -302751295#9 -302751295#8 -562634341 118672633#1 118672633#2 118672633#3 561426521 -35950882#5 -35950882#2 1034028675#2 1034028675#6" />
    </vehicle>
    <vehicle id="ma_24" type="motorbike" depart="19.20">
        <route edges="695295268 1280089201#0 1280089201#1 1280089201#2 -694715298 -694715297 -39368999#21 -39368999#20 -39368999#16 -39368999#15 -39368999#14 695544823" />
    </vehicle>
    <vehicle id="ma_26" type="motorbike" depart="20.80">
        <route edges="694767769 695496039#0 695496039#1 695496039#2 695496039#3 695502614 695502613 695502611#0 695502611#1 695504114#0 695504114#1 695504114#4 295449627#0 295449627#2 295449627#3 295449627#4 295449627#5 698046188#1 1279915897 1282340739 118567494 1279915919 1279915896#0 -118688839#6 -118688839#5 -118688839#4 -118688839#3 -118688839#2 -343236557#1" />
    </vehicle>
    <vehicle id="mx_14" type="motorbike2" depart="22.12">
        <route edges="695040105#0 695040102#0 695040102#1 -295386152#4 -295386152#3 -295386152#2 -295386152#1 -118575975#6 -118575975#5 -118575975#4 -118575975#3 -118575975#2 -118575975#1 -118575975#0 118575972#5 689583171#11 689583171#12 689583171#15 695025560#0" />
    </vehicle>
    <vehicle id="tx_3" type="taxi" depart="22.50">
        <route edges="695025562#1 256668722 1096471623#0 35950897#0 35950897#1 35950897#6 35950897#10 35950897#13 35950897#15 964171425#0 964171425#2 964171425#3 964171425#4 964171425#5 964171425#6 1034028678 1034027336#0 1034027336#1 1034027336#2 1282340718 1282340717#0 694772625#0 1210918873#0 1392384124 693330103#2" />
    </vehicle>
    <vehicle id="ma_30" type="motorbike" depart="24.00">
        <route edges="35950897#6 -118575968#5 -118575968#1 765351891#0 765351891#2 765351891#4 1279915898#0 1279915898#2 1279915898#5 1279915898#6 1279915898#9 302751295#0 302751295#1 302751295#2 302751295#3 302751295#4 302751295#5 302751295#6 302751295#7 302751295#8 302751295#9 302751295#10 302751295#11 302751295#12 302751295#13 302751295#15 35950864#0 35950864#3 35950864#6 35950864#8 35950864#14 35950864#17 35950864#18 35950864#19 35950864#21 35950864#22 35950864#23 35950864#24 35950864#25 35950864#28 118575974#1 -35950959#11" />
    </vehicle>
    <vehicle id="dv_2" type="delivery" depart="24.00">
        <route edges="695496039#2 695496039#3 695502614 695502613 695502611#0 695502611#1 695504114#0 695504114#1 695429325#1 39368999#1 39368999#2 39368999#3 39368999#4 39368999#6 39368999#9 39368999#10 39368999#11 39368999#13 39368999#14 39368999#15 39368999#16 118673937#0 118673937#3 -561913438#6 -561913438#4 -561913438#3 828724700#0 828724700#1 828724700#2 828724700#3 -562709015#1 -562709015#0 -372466115#1 118672612#0 118672612#1 -1446429434#3 -1446429434#2 -1446429434#1 -828724710 -828724711#0" />
    </vehicle>
    <vehicle id="ma_32" type="motorbike" depart="25.60">
        <route edges="295449622#0 295449622#2 372220804#4 372220804#5 372220804#13 695446625#0 695446625#1 118566872#11 -118566873#2 -118566873#1 -118566873#0 -695446623#1" />
    </vehicle>
    <vehicle id="ca_9" type="car" depart="27.00">
        <route edges="828724698 828724697#1 -828724700#1 -828724700#0 561913438#3 561913438#4 561913438#5 118673937#4 -562701507#1 -562701507#0 828724768#0 828724768#1 828724764#0 828724764#1 828724763#2 828724763#3 828724762 -118672607#5 -118672607#4 -118672607#3 -118672607#2 -118672607#1 -118672607#0 -35950868#25 -35950868#23 -35950868#22 -35950868#21 642360965#0 642360965#1 642360965#2 642360965#3 408161670#21 408161670#22" />
    </vehicle>
    <vehicle id="ma_35" type="motorbike" depart="28.00">
        <route edges="118570175 295408467 642086911 -35950864#30 118575974#1 -35950959#11 118570183#0 118570183#1 118570183#2 118570183#3 -39368999#2 -39368999#1 -39368999#0 695504114#4 295449627#0 295449627#2 295449627#3 295449627#4 295449627#5 698046188#1 1279915897 1282340739 118567494 1279915919 35950925#0 35950925#1 35950925#2 35950925#3 118575972#0 118575972#1 698936203#4 828678747 -828678747" />
    </vehicle>
    <vehicle id="ma_37" type="motorbike" depart="29.60">
        <route edges="695295267#0 695295267#2 -118674615#1 -35950864#20 -35950864#18 -35950864#17 -35950864#16 -35950864#13 -35950864#7 -35950864#5 -35950864#2 -302751295#16 -302751295#14 -302751295#12 -302751295#11 -302751295#10 -302751295#9 -302751295#8 -302751295#7 -302751295#6 -302751295#5 -302751295#4 -302751295#3 -302751295#2 -302751295#1 -302751295#0 -35950882#14 697869050#0 697869050#1" />
    </vehicle>
    <vehicle id="tx_4" type="taxi" depart="30.00">
        <route edges="35950897#15 -302739242#2 -302739242#0 -118575969#1 -118575969#0 -118555049#1 -118555049#0 -765351891#4 118573597 -828724737 828724737" />
    </vehicle>
    <vehicle id="ma_39" type="motorbike" depart="31.20">
        <route edges="-372220804#34 -372220804#33 -697822848#3 -697822848#2 828724786 -118566872#0 -39368999#3 -39368999#2 -39368999#1 -39368999#0 695490087#1 695490086#1 295449625#0 295449625#1 695496042#0 695496042#1 695496042#2 695496040 1280219250 1280219258#0 295408463#0 295408463#1" />
    </vehicle>
    <vehicle id="ma_41" type="motorbike" depart="32.80">
        <route edges="295408462#10 295408462#12 1282340737 1282340736 160628085#0 160628085#1 160628085#2 1280089222 1280089201#0 295408452#0 295408452#1 295408452#5 295408452#6 295408452#7 295408452#8 295408452#9 -302751295#23 -302751295#22 -302751295#21 -302751295#20 -302751295#18 -302751295#16 -302751295#14 -302751295#12 -302751295#11 -302751295#10 -302751295#9 -302751295#8 -302751295#7 -302751295#6 -302751295#5 -302751295#4 -302751295#3 -302751295#2 -302751295#1 -302751295#0 -1279915898#9 -1279915898#8 -1279915898#5 -1279915898#3 -1279915898#1 118555049#0 118555049#1 118575969#0 118575969#1 673151144#0 673151144#1 1352258992 964171425#3 964171425#4 964171425#5" />
    </vehicle>
    <vehicle id="ma_42" type="motorbike" depart="33.60">
        <route edges="-641423230 641423230 118575975#2 118575975#3 118575975#4 118575975#5 118575975#6 -295386152#0 695030266 695033474#1 695040105#0 695040105#3 695040105#5 695040552#0 695040552#1 1279915919 1279915896#0 1279915896#1 1282715056 696168834#0 696168834#1 696169688 696169687#1 372220804#15 372220804#16 372220804#17 372220804#18 372220804#19 372220804#20 372220804#21 372220804#22 372220804#23 372220804#28 372220804#29 372220804#30 372220804#31 372220804#32 372220804#33 372220804#34 -695544823 39368999#14 39368999#15 39368999#16 39368999#17 39368999#21 35950864#18 35950864#19 118674615#0 118674615#2 118674615#3 118674615#4 -405113892#0 405113892#0 -118674615#4 -118674615#3 -118674615#2" />
    </vehicle>
    <vehicle id="ma_44" type="motorbike" depart="35.20">
        <route edges="118570151#1 118570167#0 118570174#2 295449622#2 372220804#4 372220804#5 372220804#13 372220804#15 372220804#16 372220804#17 372220804#18 372220804#19 372220804#20 372220804#21 372220804#22 -1387292390#4 -1387292390#3 -1387292390#1 -1387292390#0 -118570183#4 -118570183#3 -118570183#2 -118570183#1 -118570183#0 35950959#9 -118575974#4 35950864#30 -642086911 295408466#0 295408466#1 1280219259#1 1280219266 1280219260#0 1280219260#1 118570175 1280219259#0" />
    </vehicle>
    <vehicle id="tk_3" type="truck" depart="36.00">
        <route edges="828724794 118570149#2 -39368999#1 -39368999#0 695504114#4 295449627#0 295449627#2 295449627#3 295449627#4 295449627#5 698046188#1 1279915897 1282340739 118567494 1279915919 35950925#0 35950925#1 35950925#2 -295386152#9 -295386152#8 -295386152#7 -295386152#6 -295386152#4 -295386152#3 -295386152#2 -295386152#1 -118575975#6 -118575975#5 -118575975#4 -118575975#3 828678741#0 828678740 302739240#3 302739240#4 693885802#2" />
    </vehicle>
    <vehicle id="ma_46" type="motorbike" depart="36.80">
        <route edges="693111346#0 1282340717#0 1282340717#1 1282340717#2 1282340719 1034027336#0 910359052#0 910359052#3 910359052#5 35950882#1 35950882#3 35950882#7 35950882#8 35950882#9 35950882#10 35950882#11 35950882#14 -35950868#38 -35950868#37 -35950868#36 -35950868#35 -35950868#33 -35950868#31 -35950868#30 -35950868#29 -35950868#28 -35950868#26 -35950868#25 -35950868#23 -562701506#1 -562701506#0 408161670#23" />
    </vehicle>
    <vehicle id="tx_5" type="taxi" depart="37.50">
        <route edges="1280219259#1 295408468#0 295408468#4 694750604#0 695496039#2 695496039#3 695502614 695502613 695502611#0 695502611#1 695504114#0 695504114#1 695504114#4 295449627#0 295449627#2 295449627#3 295449627#4 295449627#5 698046188#1 1279915897 1282340739 118567494 1279915919 1279915896#0 1279915896#1 1282715056 1282340752" />
    </vehicle>
    <vehicle id="ma_48" type="motorbike" depart="38.40">
        <route edges="-673151200#5 -673151200#2 -673151200#0 -35950959#2 -35950959#1 -35950959#0 -643264676 295449625#0" />
    </vehicle>
    <vehicle id="mx_25" type="motorbike2" depart="39.50">
        <route edges="295408464#0-AddedOffRampEdge 1280614504#0 1280614504#1 1280614504#2 1280219250 694767769 695496039#0 695496039#1" />
    </vehicle>
    <vehicle id="mx_26" type="motorbike2" depart="41.08">
        <route edges="828678877 -828678877 828678878#1 -372464931#2 -372464931#1 -372464931#0 408161670#17 408161670#18 408161670#20 408161670#21 408161670#22 408161670#23 408161670#24 408161670#25 408161670#27 408161670#28 1279915898#5 1279915898#6 1279915898#9 302751295#0 302751295#1 302751295#2 302751295#3 302751295#4 302751295#5 302751295#6 302751295#7 302751295#8 302751295#9 302751295#10 302751295#11 302751295#12 302751295#13 302751295#15 302751295#17 302751295#19 302751295#21 302751295#22 302751295#23 295408452#10 295408452#11" />
    </vehicle>
    <vehicle id="ma_53" type="motorbike" depart="42.40">
        <route edges="693885804#0 693885804#2 1426764507#0 1426764507#2 35950897#0 35950897#1 35950897#6 -118575968#5 -118575968#1 765351891#0 765351891#2 765351891#4 1279915898#0 1279915898#2 1279915898#5 1279915898#6 1279915898#9 302751295#0 302751295#1 302751295#2 302751295#3 302751295#4 302751295#5 302751295#6 302751295#7 302751295#8 302751295#9 302751295#10 302751295#11 302751295#12 302751295#13 302751295#15 302751295#17 302751295#19 302751295#21 302751295#22 697200467#10 697200467#11 1280089201#2 1280219265 1280219261 1282340737 1282340736 160628085#0 160628085#1 160628085#2 295408461#0" />
    </vehicle>
    <vehicle id="ma_55" type="motorbike" depart="44.00">
        <route edges="-372464937#1 -372464937#0 -118672608#2 -118672608#1 -118672608#0 35950868#34 35950868#36 35950868#37 35950868#38 -35950882#14 -35950882#13 -1346339141#1 -828724718" />
    </vehicle>
    <vehicle id="ca_15" type="car" depart="45.00">
        <route edges="695090346#3 828678908 118573606#2 118573606#4 118573606#8 372467078#3 408161670#13 408161670#16 408161670#17 408161670#18 408161670#20 408161670#21 408161670#22 408161670#23 408161670#24 -118573597 765351891#4 118555049#0 118555049#1 118575969#0 118575969#1 302739242#0 302739242#1 964171425#0 1352258993#0 -673151144#1 -673151144#0" />
    </vehicle>
    <vehicle id="ma_57" type="motorbike" depart="45.60">
        <route edges="408161670#18 408161670#20 408161670#21 408161670#22 408161670#23 408161670#24 408161670#25 408161670#27 408161670#28 1279915898#5 1279915898#6 1279915898#9 302751295#0 302751295#1 302751295#2 302751295#3 302751295#4 302751295#5 302751295#6 302751295#7 302751295#8 302751295#9 302751295#10 302751295#11 302751295#12 302751295#13 302751295#15 35950864#0 35950864#3 35950864#6 35950864#8 35950864#14" />
    </vehicle>
    <vehicle id="ma_58" type="motorbike" depart="46.40">
        <route edges="698936203#0 698936203#1 698936203#3 698936203#4 698936203#5 698936203#7 698936203#8 698936203#9 1279915895#0 1279915895#1 408161670#0 408161670#13 408161670#16 408161670#17 -118573603#2 -118573603#1 -118573603#0 35950868#15 35950868#16 35950868#17 35950868#18 35950868#19 118672606#0 118672606#1 118672606#2 118672606#3 118672606#6 118672606#7" />
    </vehicle>
    <vehicle id="ma_60" type="motorbike" depart="48.00">
        <route edges="-372220804#32 -372220804#31 -118575976#1 -118575976#0 -118566872#2 -118566872#1 -118566872#0 -39368999#3 -118570183#3 -118570183#2 -118570183#1 -118570183#0 35950959#9 -118575974#4 35950864#30 -642086911 295408466#0 295408466#1 1280219259#1 1280219266 1280219260#0 1280219260#1 118570175" />
    </vehicle>
    <vehicle id="dv_4" type="delivery" depart="48.00">
        <route edges="694775628#2 302751284#0 302751284#3 673151142#2 673151142#3 673151142#4 673151142#5 695025562#0 695025562#1 695025559 693885802#0 693885802#2 295386152#0 295386152#1 295386152#2 828678746 -828678746" />
    </vehicle>
    <vehicle id="ma_62" type="motorbike" depart="49.60">
        <route edges="295408468#5 295408468#6 1280219267 695496040 1280219250 1280219258#0 295408463#0 295408463#1 1280219260#0 1280219260#1 295408462#0 295408462#1 295408462#8 295408462#10 295408462#12 1282340737 1282340736 160628085#0" />
    </vehicle>
    <vehicle id="ca_17" type="car" depart="51.00">
        <route edges="694830396 694830397 694830395#0 694830395#1 695025562#0 695025562#1 695025559 693885802#0 693885802#2 695030266 695033474#1 695040105#0 695040105#3 695040105#5 695040552#0 695040552#1 1279915919 1279915896#0 1279915896#1 1282715056 696168834#0 696168834#1 696169688 696169687#1 695446625#0 695446625#1 695446625#3 695490087#1 695490086#1 643264676 35950959#0 35950959#1 35950959#2 35950959#3 35950959#4 35950959#5 35950959#7 35950959#9 -118575974#4 35950864#30 -642086911 295408466#0 295408466#1 1280219259#1 1280219266 1280219260#0 1280219260#1 295408462#0" />
    </vehicle>
    <vehicle id="mx_33" type="motorbike2" depart="52.14">
        <route edges="964171425#0 1352258993#0 -673151144#1 -673151144#0 -118575969#1 -118575969#0 -118555049#1 -118555049#0 1279915898#0 1279915898#2 1279915898#5 1279915898#6 1279915898#9 302751295#0 302751295#1 302751295#2 302751295#3 302751295#4 302751295#5 302751295#6 302751295#7 302751295#8 302751295#9 302751295#10 302751295#11 302751295#12 302751295#13 302751295#15 302751295#17 302751295#19 302751295#21 302751295#22 697200467#10 697200467#11 1280089201#2 1280219265 1280219261 1282340737 1282340736 160628085#0 160628085#1" />
    </vehicle>
    <vehicle id="ma_66" type="motorbike" depart="52.80">
        <route edges="295449627#0 295449627#2 295449627#3 295449627#4 -371909428 696169688 696169687#1 695446625#0 695446625#1 695446625#3 695490087#1 695490086#1 295449625#0 295449625#1 695496042#0 695496042#1 695496042#2" />
    </vehicle>
    <vehicle id="ca_18" type="car" depart="54.00">
        <route edges="695502611#0 695502611#1 35950959#0 35950959#1 35950959#2 35950959#3 35950959#4 35950959#5 35950959#7 35950959#9 -118575974#4 -35950864#29 -35950864#27 -35950864#24 -35950864#23 -35950864#22 -35950864#21 -35950864#20 -35950864#18 -39368999#21 -39368999#20" />
    </vehicle>
    <vehicle id="mx_35" type="motorbike2" depart="55.30">
        <route edges="35950897#0 35950897#1 35950897#6 -118575968#5 -118575968#1 765351891#0 765351891#2 765351891#4 1279915898#0 1279915898#2 1279915898#5 1279915898#6 1279915898#9 -35950868#38 -35950868#37 -35950868#36 -35950868#35 118672608#0 118672608#1 118672608#2 118672608#3 -118672619#3" />
    </vehicle>
    <vehicle id="ma_71" type="motorbike" depart="56.80">
        <route edges="693885804#0 693885804#2 1426764507#0 1426764507#2 35950897#0 35950897#1 -676458405#3 -676458405#0 676458405#0 676458405#1 302751284#3" />
    </vehicle>
    <vehicle id="ma_72" type="motorbike" depart="57.60">
        <route edges="1280614504#1 1280614504#2 1280219250 694767769 695496039#0 695496039#1 695496039#2 695496039#3 695502614 695502613 695502611#0 695502611#1 695504114#0 695504114#1 695504114#4 295449627#0 295449627#2 295449627#3 295449627#4 295449627#5 698046188#1" />
    </vehicle>
    <vehicle id="ma_74" type="motorbike" depart="59.20">
        <route edges="695496039#1 695496039#2 695496039#3 695502614 118673929#0 118673929#1 118673929#2 118673929#3 118673929#5 118673929#7 295408466#1 1280219259#1 1280219266 1280219260#0 1280219260#1 118570175 295408467 642086911 -35950864#30 -35950864#29 -35950864#27 -35950864#24 -35950864#23 -35950864#22 -35950864#21 -35950864#20 -35950864#18 -35950864#17 -35950864#16 405962811#0" />
    </vehicle>
    <vehicle id="sv_8" type="car_suv" depart="60.00">
        <route edges="-895430059 895430059 -118570181#6 -118570181#5 -118570181#4 -118570181#3 -118570181#2 -118570181#1 35950868#13 35950868#14 35950868#15 35950868#16 35950868#17 35950868#18 35950868#19 35950868#20 35950868#21 35950868#22 35950868#23 35950868#24 35950868#26 35950868#27 35950868#29 35950868#30 35950868#31 35950868#32 35950868#34 35950868#36 35950868#37 35950868#38 -35950882#14 -35950882#13 -35950882#10 -35950882#9 -35950882#8 -35950882#7 -35950882#5 -35950882#2" />
    </vehicle>
    <vehicle id="dv_5" type="delivery" depart="60.00">
        <route edges="-828678776 -828678777#0 676453139#1 -118570159#11 -118570159#10 -118570159#9 -118570159#8 -118570159#7 -118570159#6 -698053103 118570181#5 -828678814#7 -828678814#5 -828678814#4 -828678814#3 -673151179#1 -673151179#0 -828678810#4 -828678810#3 -828678790 828678790 828678810#3 828678810#4" />
    </vehicle>
    <vehicle id="ma_77" type="motorbike" depart="61.60">
        <route edges="35950868#32 118672608#0 118672608#1 118672608#2 118672608#3 -561474235 828724754#2 828724726#0 828724726#1 372466117#3 -1160396738 372466116#0 372466116#1 562701507#0 562701507#1 -118673937#4 -118673937#3 -118673937#2 -39368999#16 -39368999#15 -39368999#14 -39368999#13 -39368999#12 -39368999#10 -39368999#9 -39368999#8 -39368999#5 -39368999#3 -118570183#3 -118570183#2 -118570183#1 -118570183#0 -35950959#8 -35950959#6 -35950959#4 -35950959#3 673151200#0 -828724821#1 -828724821#0 695502611#0 695502611#1" />
    </vehicle>
    <vehicle id="ca_21" type="car" depart="63.00">
        <route edges="695502611#1 695504114#0 695504114#1 695504114#4 295449627#0 295449627#2 295449627#3 295449627#4 295449627#5 698046188#1 1279915897 1282340739 695510007#0 695510007#1 295128790#0 295128790#3 295128790#4 295128790#10 693885804#0" />
    </vehicle>
    <vehicle id="ma_80" type="motorbike" depart="64.00">
        <route edges="1034028675#0 35950882#1 35950882#3 35950882#7 35950882#8 35950882#9 35950882#10 35950882#11 35950882#14 -35950868#38 -35950868#37 -35950868#36 -35950868#35 -35950868#33 -35950868#31 -35950868#30 -35950868#29 -35950868#28 -35950868#26 -35950868#25 -35950868#23 -35950868#22 -35950868#21 -35950868#20 -35950868#19 -35950868#18 -35950868#17 -35950868#16 -35950868#15 -35950868#14 -35950868#13 -35950868#12 -35950868#10 -35950868#9 -35950868#8 -35950868#7 -35950868#6 -35950868#5 -35950868#4 -35950868#3 -35950868#2 -35950868#0 -695510008#3 -695510008#1 -695510008#0 1282340739 118567494 1279915919 35950925#0 35950925#1 35950925#2 35950925#3 35950925#5 35950925#6 35950925#7 -676509072#2 -676509072#1 -676509076#1 -676509076#0 1279915921 -689583176#6 -689583176#4" />
    </vehicle>
    <vehicle id="ma_81" type="motorbike" depart="64.80">
        <route edges="828678741#1 -828678741#1 -828678741#0 118575975#3 118575975#4 118575975#5 118575975#6 -295386152#0 695030266 695033474#1 1279915895#0 1279915895#1 408161670#0 408161670#13 408161670#16 408161670#17 408161670#18 408161670#20 408161670#21 408161670#22 562701506#0 562701506#1 35950868#23 35950868#24 118672607#0 118672607#1 118672607#2 118672607#3 118672607#4 118672607#5 -828724762 -828724763#3 -828724763#2 -828724764#1 828724757#0 -828724756#0" />
    </vehicle>
    <vehicle id="mx_42" type="motorbike2" depart="66.36">
        <route edges="694583900#0-AddedOffRampEdge 693111346#0 1282340717#0 1282340717#1 1282340717#2 1034028677#0 1034028677#1" />
    </vehicle>
    <vehicle id="sv_9" type="car_suv" depart="67.50">