<?xml version="1.0" encoding="UTF-8"?>
<trips>
    <trip id="ma_0" depart="0.00" from="302751295#1" to="828724757#1" type="motorbike" />
    
    <trip id="mx_0" depart="0.00" from="295408462#12" to="-118570159#2" type="motorbike2" />
    
    <trip id="ca_0" depart="0.00" from="1282340772" to="694767769" type="car" />
    
    <trip id="sv_0" depart="0.00" from="1282340736" to="673151142#5" type="car_suv" />
    
    <trip id="tx_0" depart="0.00" from="372466120#2" to="1034028676#0" type="taxi" />
    
    <trip id="bs_0" depart="0.00" from="-828724699#1" to="695496039#1" type="bus" />
    
    <trip id="tk_0" depart="0.00" from="300947940" to="118672299#2" type="truck" />
    
    <trip id="dv_0" depart="0.00" from="-828724815" to="295408465#2" type="delivery" />
    
    <trip id="ma_1" depart="0.44" from="295449627#4" to="295408465#1" type="motorbike" />
    
    <trip id="mx_1" depart="0.87" from="964171425#2" to="698936203#9" type="motorbike2" />
    
    <trip id="ma_2" depart="0.88" from="-1076293830#1" to="-642353277" type="motorbike" />
    
    <trip id="ma_3" depart="1.32" from="295449625#1" to="695030266" type="motorbike" />
    
    <trip id="ca_1" depart="1.67" from="697200467#8" to="-1387292390#0" type="car" />
    
    <trip id="mx_2" depart="1.74" from="295128790#3" to="295128790#3" type="motorbike2" />
    
    <trip id="ma_4" depart="1.76" from="694601892" to="695496042#1" type="motorbike" />
    
    <trip id="ma_5" depart="2.20" from="695490086#1" to="695025562#1" type="motorbike" />
    
    <trip id="mx_3" depart="2.61" from="408161670#17" to="-562701502#2" type="motorbike2" />
    
    <trip id="ma_6" depart="2.64" from="693885803#27" to="-765351891#0" type="motorbike" />
    
    <trip id="ma_7" depart="3.08" from="693885804#2" to="561913437#3" type="motorbike" />
    
    <trip id="ca_2" depart="3.34" from="-39368999#8" to="696169687#1" type="car" />
    
    <trip id="mx_4" depart="3.48" from="641082247" to="695496042#1" type="motorbike2" />
    
    <trip id="ma_8" depart="3.52" from="828678875" to="697200467#8" type="motorbike" />
    
    <trip id="ma_9" depart="3.96" from="-35950850#24" to="-828678812" type="motorbike" />
    
    <trip id="sv_1" depart="4.00" from="964171425#0" to="-641457630" type="car_suv" />
    
    <trip id="tx_1" depart="4.00" from="1280089201#1" to="321069061" type="taxi" />
    
    <trip id="mx_5" depart="4.35" from="408161670#27" to="-372464935#1" type="motorbike2" />
    
    <trip id="ma_10" depart="4.40" from="697200467#10" to="828678868" type="motorbike" />
    
    <trip id="ma_11" depart="4.84" from="1280614504#0" to="-118672633#3" type="motorbike" />
    
    <trip id="bs_1" depart="5.00" from="695030266" to="693416739#0" type="bus" />
    
    <trip id="ca_3" depart="5.01" from="372467090#1" to="1280219257#2" type="car" />
    
    <trip id="mx_6" depart="5.22" from="673151147#0" to="295128790#10" type="motorbike2" />
    
    <trip id="ma_12" depart="5.28" from="-35950868#25" to="-118673921#2" type="motorbike" />
    
    <trip id="ma_13" depart="5.72" from="694594970#0" to="295394152#1" type="motorbike" />
    
    <trip id="mx_7" depart="6.09" from="295408452#7" to="408161670#20" type="motorbike2" />
    
    <trip id="ma_14" depart="6.16" from="828678770" to="695502611#1" type="motorbike" />
    
    <trip id="ma_15" depart="6.60" from="-828678807" to="697200467#11" type="motorbike" />
    
    <trip id="tk_1" depart="6.67" from="408161670#22" to="697200467#1" type="truck" />
    
    <trip id="dv_1" depart="6.67" from="695295267#0" to="695295267#2" type="delivery" />
    
    <trip id="ca_4" depart="6.68" from="-35950868#9" to="828678794#1" type="car" />
    
    <trip id="mx_8" depart="6.96" from="-35950868#31" to="118570159#7" type="motorbike2" />
    
    <trip id="ma_16" depart="7.04" from="-372220804#3" to="-39354228#8" type="motorbike" />
    
    <trip id="ma_17" depart="7.48" from="295408462#10" to="561667996#2" type="motorbike" />
    
    <trip id="mx_9" depart="7.83" from="695496039#1" to="1210918872#0" type="motorbike2" />
    
    <trip id="ma_18" depart="7.92" from="408161670#22" to="828724768#4" type="motorbike" />
    
    <trip id="sv_2" depart="8.00" from="895450605" to="828678837#0" type="car_suv" />
    
    <trip id="tx_2" depart="8.00" from="828678860#2" to="408161670#28" type="taxi" />
    
    <trip id="ca_5" depart="8.35" from="693416739#3" to="693416427" type="car" />
    
    <trip id="ma_19" depart="8.36" from="695496039#0" to="1418093030" type="motorbike" />
    
    <trip id="mx_10" depart="8.70" from="828678838" to="302739239#2" type="motorbike2" />
    
    <trip id="ma_20" depart="8.80" from="295408459#7" to="693885804#2" type="motorbike" />
    
    <trip id="ma_21" depart="9.24" from="676458408" to="302751282" type="motorbike" />
    
    <trip id="mx_11" depart="9.57" from="-1446429434#0" to="295408452#0" type="motorbike2" />
    
    <trip id="ma_22" depart="9.68" from="694601892" to="828724684#0" type="motorbike" />
    
    <trip id="bs_2" depart="10.00" from="696991611#2" to="-118570151#1" type="bus" />
    
    <trip id="ca_6" depart="10.02" from="910359052#9" to="-1282340713#0" type="car" />
    
    <trip id="ma_23" depart="10.12" from="695490087#1" to="35950925#1" type="motorbike" />
    
    <trip id="mx_12" depart="10.44" from="118672444#4" to="39368999#14" type="motorbike2" />
    
    <trip id="ma_24" depart="10.56" from="295408452#16" to="693885802#2" type="motorbike" />
    
    <trip id="ma_25" depart="11.00" from="695040552#1" to="828724695" type="motorbike" />
    
    <trip id="mx_13" depart="11.31" from="35950882#8" to="1034028676#2" type="motorbike2" />
    
    <trip id="ma_26" depart="11.44" from="300947940" to="693330103#2" type="motorbike" />
    
    <trip id="ca_7" depart="11.69" from="372464934#0" to="695295267#2" type="car" />
    
    <trip id="ma_27" depart="11.88" from="118570164#1" to="405962811#2" type="motorbike" />
    
    <trip id="sv_3" depart="12.00" from="-828678784" to="695496039#1" type="car_suv" />
    
    <trip id="tx_3" depart="12.00" from="-828678816#0" to="-828678838" type="taxi" />
    
    <trip id="mx_14" depart="12.18" from="295408477" to="828678874#2" type="motorbike2" />
    
    <trip id="ma_28" depart="12.32" from="295128790#3" to="-695446623#0" type="motorbike" />
    
    <trip id="ma_29" depart="12.76" from="295408452#7" to="405113892#4" type="motorbike" />
    
    <trip id="mx_15" depart="13.05" from="697200467#10" to="118570178#1" type="motorbike2" />
    
    <trip id="ma_30" depart="13.20" from="408161670#23" to="695496039#0" type="motorbike" />
    
    <trip id="tk_2" depart="13.34" from="828678869#1" to="-828678776" type="truck" />
    
    <trip id="dv_2" depart="13.34" from="-118570149#5" to="-302751295#10" type="delivery" />
    
    <trip id="ca_8" depart="13.36" from="673151142#5" to="1280219267" type="car" />
    
    <trip id="ma_31" depart="13.64" from="-372222431" to="698993299" type="motorbike" />
    
    <trip id="mx_16" depart="13.92" from="-118575975#4" to="-118672464#2" type="motorbike2" />
    
    <trip id="ma_32" depart="14.08" from="295408452#6" to="39368999#15" type="motorbike" />
    
    <trip id="ma_33" depart="14.52" from="693330103#0" to="694767769" type="motorbike" />
    
    <trip id="mx_17" depart="14.79" from="-118575975#6" to="408161670#21" type="motorbike2" />
    
    <trip id="ma_34" depart="14.96" from="1282340733#1" to="295128790#3" type="motorbike" />
    
    <trip id="bs_3" depart="15.00" from="295449625#0" to="695446625#0" type="bus" />
    
    <trip id="ca_9" depart="15.03" from="964171425#0" to="1280219257#2" type="car" />
    
    <trip id="ma_35" depart="15.40" from="405113895" to="1446454670" type="motorbike" />
    
    <trip id="mx_18" depart="15.66" from="-405113896#1" to="39354228#6" type="motorbike2" />
    
    <trip id="ma_36" depart="15.84" from="1280219267" to="295408461#5" type="motorbike" />
    
    <trip id="sv_4" depart="16.00" from="1034028676#1" to="35950868#11" type="car_suv" />
    
    <trip id="tx_4" depart="16.00" from="1034028677#0" to="1034028678" type="taxi" />
    
    <trip id="ma_37" depart="16.28" from="676450959" to="39368999#11" type="motorbike" />
    
    <trip id="mx_19" depart="16.53" from="-1447078728#1" to="35950868#30" type="motorbike2" />
    
    <trip id="ca_10" depart="16.70" from="694830397" to="695496039#0" type="car" />
    
    <trip id="ma_38" depart="16.72" from="693885804#2" to="696168834#1" type="motorbike" />
    
    <trip id="ma_39" depart="17.16" from="1355319664" to="695504114#1" type="motorbike" />
    
    <trip id="mx_20" depart="17.40" from="-344658497#2" to="-118573603#2" type="motorbike2" />
    
    <trip id="ma_40" depart="17.60" from="-302751295#16" to="35950925#5" type="motorbike" />
    
    <trip id="ma_41" depart="18.04" from="964171425#3" to="-828678788#1" type="motorbike" />
    
    <trip id="mx_21" depart="18.27" from="828724748" to="-118672606#2" type="motorbike2" />
    
    <trip id="ca_11" depart="18.37" from="295408452#11" to="-828724715" type="car" />
    
    <trip id="ma_42" depart="18.48" from="343417844#0" to="695510007#0" type="motorbike" />
    
    <trip id="ma_43" depart="18.92" from="695295267#0" to="295128790#10" type="motorbike" />
    
    <trip id="mx_22" depart="19.14" from="641397122#1" to="695496039#2" type="motorbike2" />
    
    <trip id="ma_44" depart="19.36" from="695295267#0" to="343417844#0" type="motorbike" />
    
    <trip id="ma_45" depart="19.80" from="1210918872#0" to="695295267#0" type="motorbike" />
    
    <trip id="sv_5" depart="20.00" from="-118672607#1" to="-35950959#1" type="car_suv" />
    
    <trip id="tx_5" depart="20.00" from="-676438752#3" to="-828678860#3" type="taxi" />
    
    <trip id="bs_4" depart="20.00" from="-35950883#3" to="35950897#1" type="bus" />
    
    <trip id="mx_23" depart="20.01" from="693885804#0" to="199383481-AddedOnRampEdge" type="motorbike2" />
    
    <trip id="tk_3" depart="20.01" from="694830396" to="295408452#9" type="truck" />
    
    <trip id="dv_3" depart="20.01" from="1280614504#0" to="964171425#6" type="delivery" />
    
    <trip id="ca_12" depart="20.04" from="-39368999#10" to="118567494" type="car" />
    
    <trip id="ma_46" depart="20.24" from="-295449629#2" to="372467085#1" type="motorbike" />
    
    <trip id="ma_47" depart="20.68" from="321069035#1" to="1034028676#2" type="motorbike" />
    
    <trip id="mx_24" depart="20.88" from="35950864#28" to="694775628#2" type="motorbike2" />
    
    <trip id="ma_48" depart="21.12" from="695295267#2" to="-828724746" type="motorbike" />
    
    <trip id="ma_49" depart="21.56" from="302751286#2" to="695295265#0" type="motorbike" />
    
    <trip id="ca_13" depart="21.71" from="695040105#5" to="295408468#0" type="car" />
    
    <trip id="mx_25" depart="21.75" from="828678750#0" to="964171425#0" type="motorbike2" />
    
    <trip id="ma_50" depart="22.00" from="1280219259#1" to="302751284#3" type="motorbike" />
    
    <trip id="ma_51" depart="22.44" from="828724755#1" to="693885804#0" type="motorbike" />
    
    <trip id="mx_26" depart="22.62" from="695040552#1" to="-676453141" type="motorbike2" />
    
    <trip id="ma_52" depart="22.88" from="1034028675#2" to="35950868#29" type="motorbike" />
    
    <trip id="ma_53" depart="23.32" from="695496039#2" to="408161672#0" type="motorbike" />
    
    <trip id="ca_14" depart="23.38" from="321069035#3" to="1034028675#2" type="car" />
    
    <trip id="mx_27" depart="23.49" from="408161670#27" to="-35950864#20" type="motorbike2" />
    
    <trip id="ma_54" depart="23.76" from="-641077469" to="562701502#1" type="motorbike" />
    
    <trip id="sv_6" depart="24.00" from="-118575976#0" to="695295267#0" type="car_suv" />
    
    <trip id="tx_6" depart="24.00" from="641397122#4" to="1280089201#1" type="taxi" />
    
    <trip id="ma_55" depart="24.20" from="1391330070#12" to="695040105#3" type="motorbike" />
    
    <trip id="mx_28" depart="24.36" from="828678862#1" to="695544822" type="motorbike2" />
    
    <trip id="ma_56" depart="24.64" from="-118672606#1" to="695504114#4" type="motorbike" />
    
    <trip id="bs_5" depart="25.00" from="302751295#2" to="118566873#2" type="bus" />
    
    <trip id="ca_15" depart="25.05" from="295449627#2" to="372464931#0" type="car" />
    
    <trip id="ma_57" depart="25.08" from="1210918873#0" to="-561913437#3" type="motorbike" />
    
    <trip id="mx_29" depart="25.23" from="-695510008#1" to="35950868#0" type="motorbike2" />
    
    <trip id="ma_58" depart="25.52" from="697200467#11" to="-641487801" type="motorbike" />
    
    <trip id="ma_59" depart="25.96" from="295449627#2" to="697200467#11" type="motorbike" />
    
    <trip id="mx_30" depart="26.10" from="-35950850#10" to="695510007#0" type="motorbike2" />
    
    <trip id="ma_60" depart="26.40" from="295408462#10" to="1426764507#2" type="motorbike" />
    
    <trip id="tk_4" depart="26.68" from="118674615#3" to="-372466115#1" type="truck" />
    
    <trip id="dv_4" depart="26.68" from="295449625#0" to="-118570168#2" type="delivery" />
    
    <trip id="ca_16" depart="26.72" from="35950897#0" to="695446625#3" type="car" />
    
    <trip id="ma_61" depart="26.84" from="695025562#1" to="-118673921#0" type="motorbike" />
    
    <trip id="mx_31" depart="26.97" from="1280614485" to="372464931#3" type="motorbike2" />
    
    <trip id="ma_62" depart="27.28" from="828678860#1" to="295408461#5" type="motorbike" />
    
    <trip id="ma_63" depart="27.72" from="695295267#0" to="1387292390#4" type="motorbike" />
    
    <trip id="mx_32" depart="27.84" from="295408461#1" to="561913438#2" type="motorbike2" />
    
    <trip id="sv_7" depart="28.00" from="-676465939#3" to="-828678743" type="car_suv" />
    
    <trip id="tx_7" depart="28.00" from="-828724700#3" to="964171425#0" type="taxi" />
    
    <trip id="ma_64" depart="28.16" from="-643237806#1" to="695040105#3" type="motorbike" />
    
    <trip id="ca_17" depart="28.39" from="-641397118" to="910359052#5" type="car" />
    
    <trip id="ma_65" depart="28.60" from="295386152#7" to="693416427" type="motorbike" />
    
    <trip id="mx_33" depart="28.71" from="118573606#10" to="1034028677#0" type="motorbike2" />
    
    <trip id="ma_66" depart="29.04" from="408161670#27" to="910359052#3" type="motorbike" />
    
    <trip id="ma_67" depart="29.48" from="828724761" to="694594970#0" type="motorbike" />
    
    <trip id="mx_34" depart="29.58" from="676451738#0" to="694775628#2" type="motorbike2" />
    
    <trip id="ma_68" depart="29.92" from="828678775" to="697200467#9" type="motorbike" />
    
    <trip id="bs_6" depart="30.00" from="295408452#16" to="694598419#1-AddedOnRampEdge" type="bus" />
    
    <trip id="ca_18" depart="30.06" from="-35950868#21" to="910359052#0" type="car" />
    
    <trip id="ma_69" depart="30.36" from="695496042#0" to="693885803#27" type="motorbike" />
    
    <trip id="mx_35" depart="30.45" from="35950925#5" to="696168834#0" type="motorbike2" />
    
    <trip id="ma_70" depart="30.80" from="-828678860#3" to="-828678778" type="motorbike" />
    
    <trip id="ma_71" depart="31.24" from="-372463312" to="697200467#4-AddedOffRampEdge" type="motorbike" />
    
    <trip id="mx_36" depart="31.32" from="408161670#21" to="693416427" type="motorbike2" />
    
    <trip id="ma_72" depart="31.68" from="-704621733#0" to="673151142#3" type="motorbike" />
    
    <trip id="ca_19" depart="31.73" from="256668722" to="-295386152#0" type="car" />
    
    <trip id="sv_8" depart="32.00" from="673151198#3" to="35950925#7" type="car_suv" />
    
    <trip id="tx_8" depart="32.00" from="673632547" to="35950897#6" type="taxi" />
    
    <trip id="ma_73" depart="32.12" from="-676465938#1" to="695496039#1" type="motorbike" />
    
    <trip id="mx_37" depart="32.19" from="964171425#2" to="-695027208" type="motorbike2" />
    
    <trip id="ma_74" depart="32.56" from="39368999#21" to="408161670#23" type="motorbike" />
    
    <trip id="ma_75" depart="33.00" from="-35950868#26" to="295394152#0" type="motorbike" />
    
    <trip id="mx_38" depart="33.06" from="-118672612#2" to="779462187#1" type="motorbike2" />
    
    <trip id="tk_5" depart="33.35" from="676438752#1" to="910359052#7" type="truck" />
    
    <trip id="dv_5" depart="33.35" from="295449627#2" to="673151142#5" type="delivery" />
    
    <trip id="ca_20" depart="33.40" from="408161670#28" to="295449627#4" type="car" />
    
    <trip id="ma_76" depart="33.44" from="-695040102#0" to="1280219259#0" type="motorbike" />
    
    <trip id="ma_77" depart="33.88" from="828724763#4" to="828678813" type="motorbike" />
    
    <trip id="mx_39" depart="33.93" from="641423230" to="695490087#1" type="motorbike2" />
    
    <trip id="ma_78" depart="34.32" from="1280614504#0" to="295408461#5" type="motorbike" />
    
    <trip id="ma_79" depart="34.76" from="698067307#1" to="295449627#5" type="motorbike" />
    
    <trip id="mx_40" depart="34.80" from="295449625#0" to="694774375#0" type="motorbike2" />
    
    <trip id="bs_7" depart="35.00" from="-828724754#1" to="828724777#0" type="bus" />
    
    <trip id="ca_21" depart="35.07" from="695510008#2" to="-118570174#2" type="car" />
    
    <trip id="ma_80" depart="35.20" from="-828678803#0" to="199383481" type="motorbike" />
    
    <trip id="ma_81" depart="35.64" from="1282340737" to="118570164#3" type="motorbike" />
    
    <trip id="mx_41" depart="35.67" from="695040105#5" to="693416739#0" type="motorbike2" />
    
    <trip id="sv_9" depart="36.00" from="295408463#1" to="-828395783" type="car_suv" />
    
    <trip id="tx_9" depart="36.00" from="694775628#0" to="408161670#27" type="taxi" />
    
    <trip id="ma_82" depart="36.08" from="828724683" to="1346339141#1" type="motorbike" />
    
    <trip id="ma_83" depart="36.52" from="-35950883#9" to="302751284#3" type="motorbike" />
    
    <trip id="mx_42" depart="36.54" from="295128790#10" to="302751299#0" type="motorbike2" />
    
    <trip id="ca_22" depart="36.74" from="695446625#0" to="343417844#0" type="car" />
    
    <trip id="ma_84" depart="36.96" from="295449627#3" to="408161670#23" type="motorbike" />
    
    <trip id="ma_85" depart="37.40" from="-118566873#1" to="160628085#0" type="motorbike" />
    
    <trip id="mx_43" depart="37.41" from="-828678794#1" to="-302739239#2" type="motorbike2" />
    
    <trip id="ma_86" depart="37.84" from="695295267#0" to="693416427" type="motorbike" />
    
    <trip id="ma_87" depart="38.28" from="1280219267" to="696168834#0" type="motorbike" />
    
    <trip id="mx_44" depart="38.28" from="828678815" to="-676712674" type="motorbike2" />
    
    <trip id="ca_23" depart="38.41" from="695502611#1" to="-118566872#12" type="car" />
    
    <trip id="ma_88" depart="38.72" from="693885804#2" to="118570159#11" type="motorbike" />
    
    <trip id="mx_45" depart="39.15" from="-118575968#5" to="35950882#14" type="motorbike2" />
    
    <trip id="ma_89" depart="39.16" from="-689583178#2" to="694772625#0" type="motorbike" />
    
    <trip id="ma_90" depart="39.60" from="828724796" to="695496039#1" type="motorbike" />
    
    <trip id="sv_10" depart="40.00" from="-118570169#2" to="295408462#8" type="car_suv" />
    
    <trip id="tx_10" depart="40.00" from="1282340718" to="-118673944#8" type="taxi" />
    
    <trip id="bs_8" depart="40.00" from="697200467#7" to="695504114#4" type="bus" />
    
    <trip id="mx_46" depart="40.02" from="828724755#0" to="35950959#2" type="motorbike2" />
    
    <trip id="tk_6" depart="40.02" from="695490087#1" to="118672612#1" type="truck" />
    
    <trip id="dv_6" depart="40.02" from="295408463#0" to="779462187#1" type="delivery" />
    
    <trip id="ma_91" depart="40.04" from="828678810#2" to="560329291#2" type="motorbike" />
    
    <trip id="ca_24" depart="40.08" from="1280089201#0" to="295408465#2-AddedOnRampEdge" type="car" />
    
    <trip id="ma_92" depart="40.48" from="562701502#2" to="673151142#4" type="motorbike" />
    
    <trip id="mx_47" depart="40.89" from="695295267#0" to="695496039#2" type="motorbike2" />
    
    <trip id="ma_93" depart="40.92" from="694598419#0" to="695040105#0" type="motorbike" />
    
    <trip id="ma_94" depart="41.36" from="642050077" to="295449627#3" type="motorbike" />
    
    <trip id="ca_25" depart="41.75" from="-118672606#0" to="408161670#25" type="car" />
    
    <trip id="mx_48" depart="41.76" from="-562634341" to="828678798#1" type="motorbike2" />
    
    <trip id="ma_95" depart="41.80" from="695496039#2" to="118573606#2" type="motorbike" />
    
    <trip id="ma_96" depart="42.24" from="118672607#5" to="676439266" type="motorbike" />
    
    <trip id="mx_49" depart="42.63" from="828678912#4" to="35950883#1" type="motorbike2" />
    
    <trip id="ma_97" depart="42.68" from="693885804#2" to="1280219257#2" type="motorbike" />
    
    <trip id="ma_98" depart="43.12" from="295449627#3" to="695502614" type="motorbike" />
    
    <trip id="ca_26" depart="43.42" from="-561913438#0" to="910359052#7" type="car" />
    
    <trip id="mx_50" depart="43.50" from="695295267#0" to="1210918873#1" type="motorbike2" />
    
    <trip id="ma_99" depart="43.56" from="694600787" to="160628085#2" type="motorbike" />
    
    <trip id="ma_100" depart="44.00" from="695295267#0" to="-118673921#1" type="motorbike" />
    
    <trip id="sv_11" depart="44.00" from="35950897#6" to="1280219267" type="car_suv" />
    
    <trip id="tx_11" depart="44.00" from="35950897#13" to="160628085#1" type="taxi" />
    
    <trip id="mx_51" depart="44.37" from="-828678743" to="698936203#9" type="motorbike2" />
    
    <trip id="ma_101" depart="44.44" from="295128790#0" to="295408465#0" type="motorbike" />
    
    <trip id="ma_102" depart="44.88" from="-372466117#1" to="-118575970#1" type="motorbike" />
    
    <trip id="bs_9" depart="45.00" from="35950897#0" to="910359052#7" type="bus" />
    
    <trip id="ca_27" depart="45.09" from="118566872#4" to="828678878#1" type="car" />
    
    <trip id="mx_52" depart="45.24" from="118672299#3" to="408161670#13" type="motorbike2" />
    
    <trip id="ma_103" depart="45.32" from="828724754#0" to="697200467#8" type="motorbike" />
    
    <trip id="ma_104" depart="45.76" from="408161670#22" to="695496039#0" type="motorbike" />
    
    <trip id="mx_53" depart="46.11" from="-561474249#1" to="-828678745#0" type="motorbike2" />
    
    <trip id="ma_105" depart="46.20" from="1034028675#0" to="302751284#3" type="motorbike" />
    
    <trip id="ma_106" depart="46.64" from="35950897#13" to="-118570168#4" type="motorbike" />
    
    <trip id="tk_7" depart="46.69" from="295408452#16-AddedOffRampEdge" to="689583171#7" type="truck" />
    
    <trip id="dv_7" depart="46.69" from="408161670#17" to="693885804#0" type="delivery" />
    
    <trip id="ca_28" depart="46.76" from="695040552#0" to="295449627#2" type="car" />
    
    <trip id="mx_54" depart="46.98" from="693885804#2" to="-35950942#2" type="motorbike2" />
    
    <trip id="ma_107" depart="47.08" from="-39368999#20" to="696168834#0" type="motorbike" />
    
    <trip id="ma_108" depart="47.52" from="695025562#0" to="118570159#7" type="motorbike" />
    
    <trip id="mx_55" depart="47.85" from="302751284#3" to="295408452#1" type="motorbike2" />
    
    <trip id="ma_109" depart="47.96" from="695544822" to="697200463#1" type="motorbike" />
    
    <trip id="sv_12" depart="48.00" from="694583900#0-AddedOffRampEdge" to="1280219265" type="car_suv" />
    
    <trip id="tx_12" depart="48.00" from="408161670#0" to="695295267#2" type="taxi" />
    
    <trip id="ma_110" depart="48.40" from="35950897#10" to="-698053103" type="motorbike" />
    
    <trip id="ca_29" depart="48.43" from="695040552#0" to="695030266" type="car" />
    
    <trip id="mx_56" depart="48.72" from="693885802#0" to="697200467#9" type="motorbike2" />
    
    <trip id="ma_111" depart="48.84" from="697200467#9" to="408161670#22" type="motorbike" />
    
    <trip id="ma_112" depart="49.28" from="964171425#6" to="-828724726#0" type="motorbike" />
    
    <trip id="mx_57" depart="49.59" from="562709015#1" to="-118555049#0" type="motorbike2" />
    
    <trip id="ma_113" depart="49.72" from="406779270" to="695446625#3" type="motorbike" />
    
    <trip id="bs_10" depart="50.00" from="-828724797#1" to="-828678801#1" type="bus" />
    
    <trip id="ca_30" depart="50.10" from="695496039#2" to="695040105#0" type="car" />
    
    <trip id="ma_114" depart="50.16" from="-405113896#0" to="-828678862#0" type="motorbike" />
    
    <trip id="mx_58" depart="50.46" from="693885804#0" to="302751282-AddedOnRampEdge" type="motorbike2" />
    
    <trip id="ma_115" depart="50.60" from="697200467#1" to="118570147#1" type="motorbike" />
    
    <trip id="ma_116" depart="51.04" from="-828678908" to="372220804#30" type="motorbike" />
    
    <trip id="mx_59" depart="51.33" from="693885804#0" to="-39354228#6" type="motorbike2" />
    
    <trip id="ma_117" depart="51.48" from="1034028677#1" to="118672299#2" type="motorbike" />
    
    <trip id="ca_31" depart="51.77" from="405113893#1" to="676438752#3" type="car" />
    
    <trip id="ma_118" depart="51.92" from="964171425#6" to="-828678867" type="motorbike" />
    
    <trip id="sv_13" depart="52.00" from="1034028677#0" to="642360965#1" type="car_suv" />
    
    <trip id="tx_13" depart="52.00" from="35950925#3" to="696168834#1" type="taxi" />
    
    <trip id="mx_60" depart="52.20" from="-1458964293" to="-118566872#16" type="motorbike2" />
    
    <trip id="ma_119" depart="52.36" from="694772625#0" to="964171425#2" type="motorbike" />
    
    <trip id="ma_120" depart="52.80" from="-372464931#3" to="693416427" type="motorbike" />
    
    <trip id="mx_61" depart="53.07" from="35950897#15" to="696168834#0" type="motorbike2" />
    
    <trip id="ma_121" depart="53.24" from="295408463#0" to="-118555049#9" type="motorbike" />
    
    <trip id="tk_8" depart="53.36" from="1280219257#1" to="694598419#0" type="truck" />
    
    <trip id="dv_8" depart="53.36" from="35950897#0" to="-676509076#0" type="delivery" />
    
    <trip id="ca_32" depart="53.44" from="-295386152#8" to="695496039#1" type="car" />
    
    <trip id="ma_122" depart="53.68" from="693885803#26" to="-295449629#2" type="motorbike" />
    
    <trip id="mx_62" depart="53.94" from="-302751295#10" to="828724694#0" type="motorbike2" />
    
    <trip id="ma_123" depart="54.12" from="300949143" to="1280089201#0" type="motorbike" />
    
    <trip id="ma_124" depart="54.56" from="828724799#1" to="779462187#1" type="motorbike" />
    
    <trip id="mx_63" depart="54.81" from="964171425#5" to="1391330070#6" type="motorbike2" />
    
    <trip id="ma_125" depart="55.00" from="-642098832#1" to="698046188#1" type="motorbike" />
    
    <trip id="bs_11" depart="55.00" from="-118672612#0" to="39368999#4" type="bus" />
    
    <trip id="ca_33" depart="55.11" from="-696715601" to="295408452#7" type="car" />
    
    <trip id="ma_126" depart="55.44" from="561667996#2" to="295408460#3" type="motorbike" />
    
    <trip id="mx_64" depart="55.68" from="695496039#0" to="35950925#3" type="motorbike2" />
    
    <trip id="ma_127" depart="55.88" from="828724769" to="35950864#24" type="motorbike" />
    
    <trip id="sv_14" depart="56.00" from="695504114#1" to="-828724797#1" type="car_suv" />
    
    <trip id="tx_14" depart="56.00" from="118672606#2" to="1280219265" type="taxi" />
    
    <trip id="ma_128" depart="56.32" from="-695510008#0" to="408161670#18" type="motorbike" />
    
    <trip id="mx_65" depart="56.55" from="35950897#10" to="695040105#0" type="motorbike2" />
    
    <trip id="ma_129" depart="56.76" from="695040552#0" to="35950868#15" type="motorbike" />
    
    <trip id="ca_34" depart="56.78" from="160628085#0" to="321069035#6" type="car" />
    
    <trip id="ma_130" depart="57.20" from="-321069035#5" to="-697870570" type="motorbike" />
    
    <trip id="mx_66" depart="57.42" from="408161670#27" to="-895447147" type="motorbike2" />
    
    <trip id="ma_131" depart="57.64" from="302751284#3" to="295408452#6" type="motorbike" />
    
    <trip id="ma_132" depart="58.08" from="1280219257#1" to="295386152#1" type="motorbike" />
    
    <trip id="mx_67" depart="58.29" from="1280219259#0" to="-118570168#1" type="motorbike2" />
    
    <trip id="ca_35" depart="58.45" from="697822848#0" to="676453140#3" type="car" />
    
    <trip id="ma_133" depart="58.52" from="-641092773" to="408161670#0" type="motorbike" />
    
    <trip id="ma_134" depart="58.96" from="-562701507#1" to="698046188#1" type="motorbike" />
    
    <trip id="mx_68" depart="59.16" from="-372466116#1" to="-295449645" type="motorbike2" />
    
    <trip id="ma_135" depart="59.40" from="408161670#22" to="295408468#0" type="motorbike" />
    
    <trip id="ma_136" depart="59.84" from="-560329291#1" to="697869050#0" type="motorbike" />
    
    <trip id="sv_15" depart="60.00" from="-828724764#0" to="35950925#6" type="car_suv" />
    
    <trip id="tx_15" depart="60.00" from="696168834#1" to="408161670#13" type="taxi" />
    
    <trip id="bs_12" depart="60.00" from="408161670#18" to="-828724700#1" type="bus" />
    
    <trip id="mx_69" depart="60.03" from="-828724749#0" to="828678779#0" type="motorbike2" />
    
    <trip id="tk_9" depart="60.03" from="-704621733#0" to="-372466117#0" type="truck" />
    
    <trip id="dv_9" depart="60.03" from="1280219266" to="673151142#3" type="delivery" />
    
    <trip id="ca_36" depart="60.12" from="35950897#0" to="693885804#0" type="car" />
    
    <trip id="ma_137" depart="60.28" from="695025562#1" to="295408452#7" type="motorbike" />
    
    <trip id="ma_138" depart="60.72" from="118573606#13" to="695025562#0" type="motorbike" />
    
    <trip id="mx_70" depart="60.90" from="828724770" to="1282340736" type="motorbike2" />
    