<?xml version="1.0" encoding="UTF-8"?>

<!-- generated on 2026-03-19 15:47:55.364454 by Eclipse SUMO randomTrips.py v1_26_0+0000-fa7df22d7f1
<configuration>
    <net-file value="D:\WeSaveTime-ASEAN\sumo\danang\danang.net.xml"/>
    <additional-files value="D:\WeSaveTime-ASEAN\sumo\danang\danang.vtypes.xml"/>
    <weights-prefix value="D:\WeSaveTime-ASEAN\sumo\danang\danang.weights"/>
    <output-trip-file value="D:\WeSaveTime-ASEAN\sumo\danang\danang.tx_.trips.xml"/>
    <prefix value="tx_"/>
    <trip-attributes value="type=&quot;taxi&quot;"/>
    <fringe-factor value="5"/>
    <random value="True"/>
    <remove-loops value="True"/>
    <end value="900.0"/>
    <period value="3.6"/>
</configuration>
-->

<routes xmlns:xsi="http://www.w3.org/2001/XMLSchema-instance" xsi:noNamespaceSchemaLocation="http://sumo.dlr.de/xsd/routes_file.xsd">
    <trip id="tx_0" depart="0.00" from="694583900#0" to="695502614" type="taxi"/>
    <trip id="tx_1" depart="3.60" from="673151196" to="302751282" type="taxi"/>
    <trip id="tx_2" depart="7.20" from="695496039#3" to="695040552#1" type="taxi"/>
    <trip id="tx_3" depart="10.80" from="694830397" to="118673921#4" type="taxi"/>
    <trip id="tx_4" depart="14.40" from="1165643361" to="35950897#13" type="taxi"/>
    <trip id="tx_5" depart="18.00" from="689583171#3" to="160628085#2" type="taxi"/>
    <trip id="tx_6" depart="21.60" from="295408452#6" to="695040552#0" type="taxi"/>
    <trip id="tx_7" depart="25.20" from="695510007#1" to="694601892" type="taxi"/>
    <trip id="tx_8" depart="28.80" from="-765351891#0" to="295408461#5" type="taxi"/>
    <trip id="tx_9" depart="32.40" from="-39368999#14" to="372464935#2" type="taxi"/>
    <trip id="tx_10" depart="36.00" from="35950868#16" to="295408465#1" type="taxi"/>
    <trip id="tx_11" depart="39.60" from="-828724746" to="695490087#1" type="taxi"/>
    <trip id="tx_12" depart="43.20" from="-1124338482" to="-118672607#0" type="taxi"/>
    <trip id="tx_13" depart="46.80" from="1280089222" to="-372466116#0" type="taxi"/>
    <trip id="tx_14" depart="50.40" from="695040105#5" to="697200467#9" type="taxi"/>
    <trip id="tx_15" depart="54.00" from="295128790#0" to="1280089201#0" type="taxi"/>
    <trip id="tx_16" depart="57.60" from="-673151198#3" to="1279915921" type="taxi"/>
    <trip id="tx_17" depart="61.20" from="295408462#8" to="-375341805" type="taxi"/>
    <trip id="tx_18" depart="64.80" from="695510007#1" to="295408461#5" type="taxi"/>
    <trip id="tx_19" depart="68.40" from="-1446429434#1" to="910359052#8" type="taxi"/>
    <trip id="tx_20" depart="72.00" from="1280614485" to="693885804#0" type="taxi"/>
    <trip id="tx_21" depart="75.60" from="-828678748" to="35950897#10" type="taxi"/>
    <trip id="tx_22" depart="79.20" from="1391330070#4" to="-302751295#27" type="taxi"/>
    <trip id="tx_23" depart="82.80" from="344658497#0" to="697200467#8" type="taxi"/>
    <trip id="tx_24" depart="86.40" from="-39368999#9" to="302751295#9" type="taxi"/>
    <trip id="tx_25" depart="90.00" from="910359052#5" to="295408452#11" type="taxi"/>
    <trip id="tx_26" depart="93.60" from="695446625#3" to="-828724681" type="taxi"/>
    <trip id="tx_27" depart="97.20" from="1280089222" to="673151142#3" type="taxi"/>
    <trip id="tx_28" depart="100.80" from="39368999#2" to="295408468#0" type="taxi"/>
    <trip id="tx_29" depart="104.40" from="295408452#9" to="408161672#1" type="taxi"/>
    <trip id="tx_30" depart="108.00" from="-39368999#2" to="1282340716" type="taxi"/>
    <trip id="tx_31" depart="111.60" from="295408452#9" to="-118672619#0" type="taxi"/>
    <trip id="tx_32" depart="115.20" from="-118575969#0" to="1282340752" type="taxi"/>
    <trip id="tx_33" depart="118.80" from="1280089201#0" to="561667994#1" type="taxi"/>
    <trip id="tx_34" depart="122.40" from="1280089201#0" to="695502611#0" type="taxi"/>
    <trip id="tx_35" depart="126.00" from="405962811#3" to="697200467#4" type="taxi"/>
    <trip id="tx_36" depart="129.60" from="695025562#0" to="295408462#10" type="taxi"/>
    <trip id="tx_37" depart="133.20" from="408161670#22" to="-642050078#0" type="taxi"/>
    <trip id="tx_38" depart="136.80" from="-118672612#4" to="1282340719" type="taxi"/>
    <trip id="tx_39" depart="140.40" from="910359052#0" to="695496042#0" type="taxi"/>
    <trip id="tx_40" depart="144.00" from="295408461#0" to="695295268" type="taxi"/>
    <trip id="tx_41" depart="147.60" from="-828724744" to="295408461#10" type="taxi"/>
    <trip id="tx_42" depart="151.20" from="118570175" to="779462187#1" type="taxi"/>
    <trip id="tx_43" depart="154.80" from="-828724780" to="1279915921" type="taxi"/>
    <trip id="tx_44" depart="158.40" from="35950868#9" to="408161670#22" type="taxi"/>
    <trip id="tx_45" depart="162.00" from="1280219260#0" to="828724758#1" type="taxi"/>
    <trip id="tx_46" depart="165.60" from="695490086#1" to="408161670#20" type="taxi"/>
    <trip id="tx_47" depart="169.20" from="697200467#1" to="693885804#0" type="taxi"/>
    <trip id="tx_48" depart="172.80" from="1280219261" to="295408462#10" type="taxi"/>
    <trip id="tx_49" depart="176.40" from="1034028675#0" to="-35950883#9" type="taxi"/>
    <trip id="tx_50" depart="180.00" from="295408462#10" to="35950882#1" type="taxi"/>
    <trip id="tx_51" depart="183.60" from="-35950864#22" to="295449627#5" type="taxi"/>
    <trip id="tx_52" depart="187.20" from="828678769#1" to="295408459#7" type="taxi"/>
    <trip id="tx_53" depart="190.80" from="35950925#2" to="295408459#5" type="taxi"/>
    <trip id="tx_54" depart="194.40" from="1280219259#1" to="693885803#1" type="taxi"/>
    <trip id="tx_55" depart="198.00" from="118674615#3" to="1282340719" type="taxi"/>
    <trip id="tx_56" depart="201.60" from="372220804#0" to="256672294" type="taxi"/>
    <trip id="tx_57" depart="205.20" from="35950868#26" to="695025560#0" type="taxi"/>
    <trip id="tx_58" depart="208.80" from="964171425#6" to="-828678748" type="taxi"/>
    <trip id="tx_59" depart="212.40" from="695025562#0" to="696168834#1" type="taxi"/>
    <trip id="tx_60" depart="216.00" from="695496042#0" to="1280219259#1" type="taxi"/>
    <trip id="tx_61" depart="219.60" from="828724752#0" to="-39368999#0" type="taxi"/>
    <trip id="tx_62" depart="223.20" from="344658497#3" to="695496039#3" type="taxi"/>
    <trip id="tx_63" depart="226.80" from="35950925#3" to="39368999#15" type="taxi"/>
    <trip id="tx_64" depart="230.40" from="694600787" to="295394152#1" type="taxi"/>
    <trip id="tx_65" depart="234.00" from="695510007#1" to="295408461#5" type="taxi"/>
    <trip id="tx_66" depart="237.60" from="295408452#16-AddedOffRampEdge" to="1034028675#0" type="taxi"/>
    <trip id="tx_67" depart="241.20" from="697200467#8" to="295408452#16-AddedOffRampEdge" type="taxi"/>
    <trip id="tx_68" depart="244.80" from="118566872#11" to="694600787" type="taxi"/>
    <trip id="tx_69" depart="248.40" from="828724722" to="-35950864#22" type="taxi"/>
    <trip id="tx_70" depart="252.00" from="694583900#0-AddedOffRampEdge" to="694598419#1-AddedOnRampEdge" type="taxi"/>
    <trip id="tx_71" depart="255.60" from="-828724683" to="1034028677#1" type="taxi"/>
    <trip id="tx_72" depart="259.20" from="910359052#7" to="-118570181#6" type="taxi"/>
    <trip id="tx_73" depart="262.80" from="295408470#1" to="-118570181#8" type="taxi"/>
    <trip id="tx_74" depart="266.40" from="694600787" to="39368999#14" type="taxi"/>
    <trip id="tx_75" depart="270.00" from="405962811#2" to="-695544823" type="taxi"/>
    <trip id="tx_76" depart="273.60" from="964171425#6" to="295408452#6" type="taxi"/>
    <trip id="tx_77" depart="277.20" from="295408461#1" to="118575967" type="taxi"/>
    <trip id="tx_78" depart="280.80" from="295408452#16-AddedOffRampEdge" to="372220804#23" type="taxi"/>
    <trip id="tx_79" depart="284.40" from="295408463#1" to="693885803#1" type="taxi"/>
    <trip id="tx_80" depart="288.00" from="-828724751" to="828678836" type="taxi"/>
    <trip id="tx_81" depart="291.60" from="-118570164#5" to="-35950882#8" type="taxi"/>
    <trip id="tx_82" depart="295.20" from="295408462#10" to="-35950864#21" type="taxi"/>
    <trip id="tx_83" depart="298.80" from="-35950868#5" to="695504114#1" type="taxi"/>
    <trip id="tx_84" depart="302.40" from="1280219265" to="-695090346#4" type="taxi"/>
    <trip id="tx_85" depart="306.00" from="828724754#0" to="828724757#0" type="taxi"/>
    <trip id="tx_86" depart="309.60" from="694715299#1" to="295408460#3" type="taxi"/>
    <trip id="tx_87" depart="313.20" from="295408459#5" to="1280614505#1" type="taxi"/>
    <trip id="tx_88" depart="316.80" from="302751295#33" to="372220804#29" type="taxi"/>
    <trip id="tx_89" depart="320.40" from="1280614504#0" to="698046188#1" type="taxi"/>
    <trip id="tx_90" depart="324.00" from="695502613" to="295408462#10" type="taxi"/>
    <trip id="tx_91" depart="327.60" from="295408452#16" to="118575973#1" type="taxi"/>
    <trip id="tx_92" depart="331.20" from="693885804#0" to="-695446623#1" type="taxi"/>
    <trip id="tx_93" depart="334.80" from="693416427" to="118570175" type="taxi"/>
    <trip id="tx_94" depart="338.40" from="295408452#16-AddedOffRampEdge" to="295408463#1" type="taxi"/>
    <trip id="tx_95" depart="342.00" from="35950864#21" to="295408462#0" type="taxi"/>
    <trip id="tx_96" depart="345.60" from="1282340735" to="642360965#2" type="taxi"/>
    <trip id="tx_97" depart="349.20" from="693885803#26" to="1280614485" type="taxi"/>
    <trip id="tx_98" depart="352.80" from="695040552#1" to="694601892" type="taxi"/>
    <trip id="tx_99" depart="356.40" from="828678770" to="372466116#0" type="taxi"/>
    <trip id="tx_100" depart="360.00" from="295408459#0" to="295408452#5" type="taxi"/>
    <trip id="tx_101" depart="363.60" from="295408452#1" to="-828724754#3" type="taxi"/>
    <trip id="tx_102" depart="367.20" from="295408452#9" to="408161670#20" type="taxi"/>
    <trip id="tx_103" depart="370.80" from="1280614504#0" to="-295386152#7" type="taxi"/>
    <trip id="tx_104" depart="374.40" from="694830396" to="697200467#8" type="taxi"/>
    <trip id="tx_105" depart="378.00" from="35950868#0" to="964171425#0" type="taxi"/>
    <trip id="tx_106" depart="381.60" from="695446625#1" to="118673921#2" type="taxi"/>
    <trip id="tx_107" depart="385.20" from="1034028675#2" to="695510007#1" type="taxi"/>
    <trip id="tx_108" depart="388.80" from="118567494" to="693885804#0" type="taxi"/>
    <trip id="tx_109" depart="392.40" from="-118575975#3" to="693416427" type="taxi"/>
    <trip id="tx_110" depart="396.00" from="1282715056" to="910359052#9" type="taxi"/>
    <trip id="tx_111" depart="399.60" from="39368999#10" to="694775628#2" type="taxi"/>
    <trip id="tx_112" depart="403.20" from="-302751295#16" to="-641097803" type="taxi"/>
    <trip id="tx_113" depart="406.80" from="-118673929#4" to="1034028675#2" type="taxi"/>
    <trip id="tx_114" depart="410.40" from="828724764#0" to="697200467#4" type="taxi"/>
    <trip id="tx_115" depart="414.00" from="295408459#1" to="693416739#3" type="taxi"/>
    <trip id="tx_116" depart="417.60" from="695025562#0" to="39368999#9" type="taxi"/>
    <trip id="tx_117" depart="421.20" from="118567889" to="295408468#4" type="taxi"/>
    <trip id="tx_118" depart="424.80" from="562701499" to="828678814#1" type="taxi"/>
    <trip id="tx_119" depart="428.40" from="694202154#0" to="295449627#4" type="taxi"/>
    <trip id="tx_120" depart="432.00" from="910359052#9" to="160628085#2" type="taxi"/>
    <trip id="tx_121" depart="435.60" from="828724810#0" to="964171425#0" type="taxi"/>
    <trip id="tx_122" depart="439.20" from="408161670#0" to="695504114#1" type="taxi"/>
    <trip id="tx_123" depart="442.80" from="694594970#0" to="1210918873#1" type="taxi"/>
    <trip id="tx_124" depart="446.40" from="372464933#1" to="828678788#1" type="taxi"/>
    <trip id="tx_125" depart="450.00" from="689583176#5" to="910359052#7" type="taxi"/>
    <trip id="tx_126" depart="453.60" from="694598419#1-AddedOnRampEdge" to="256672294" type="taxi"/>
    <trip id="tx_127" depart="457.20" from="828724786" to="694598419#0" type="taxi"/>
    <trip id="tx_128" depart="460.80" from="408161670#0" to="372220804#22" type="taxi"/>
    <trip id="tx_129" depart="464.40" from="-39368999#3" to="1280219261" type="taxi"/>
    <trip id="tx_130" depart="468.00" from="698936203#4" to="199383481-AddedOnRampEdge" type="taxi"/>
    <trip id="tx_131" depart="471.60" from="302751295#2" to="295394152#1" type="taxi"/>
    <trip id="tx_132" depart="475.20" from="-673151200#5" to="302751295#23" type="taxi"/>
    <trip id="tx_133" depart="478.80" from="695040105#0" to="694775628#0" type="taxi"/>
    <trip id="tx_134" depart="482.40" from="295408452#11" to="694601892" type="taxi"/>
    <trip id="tx_135" depart="486.00" from="295408459#1" to="-828678901" type="taxi"/>
    <trip id="tx_136" depart="489.60" from="910359052#5" to="1418093030" type="taxi"/>
    <trip id="tx_137" depart="493.20" from="295408462#1" to="1076293830#0" type="taxi"/>
    <trip id="tx_138" depart="496.80" from="372220804#29" to="1279915896#1" type="taxi"/>
    <trip id="tx_139" depart="500.40" from="-118570149#2" to="695510007#1" type="taxi"/>
    <trip id="tx_140" depart="504.00" from="695040552#0" to="697869050#1" type="taxi"/>
    <trip id="tx_141" depart="507.60" from="35950925#0" to="295408452#16-AddedOffRampEdge" type="taxi"/>
    <trip id="tx_142" depart="511.20" from="694601892" to="693885802#0" type="taxi"/>
    <trip id="tx_143" depart="514.80" from="1034028677#1" to="-35950868#18" type="taxi"/>
    <trip id="tx_144" depart="518.40" from="1282715056" to="160628085#1" type="taxi"/>
    <trip id="tx_145" depart="522.00" from="295408452#16-AddedOffRampEdge" to="-321069043#1" type="taxi"/>
    <trip id="tx_146" depart="525.60" from="828724795#0" to="295408462#10" type="taxi"/>
    <trip id="tx_147" depart="529.20" from="828724780" to="561667995" type="taxi"/>
    <trip id="tx_148" depart="532.80" from="-828678817#1" to="35950897#15" type="taxi"/>
    <trip id="tx_149" depart="536.40" from="302751295#15" to="828724716" type="taxi"/>
    <trip id="tx_150" depart="540.00" from="295408464#0" to="1034028676#0" type="taxi"/>
    <trip id="tx_151" depart="543.60" from="-39368999#20" to="295408452#16-AddedOffRampEdge" type="taxi"/>
    <trip id="tx_152" depart="547.20" from="408161670#20" to="693885802#0" type="taxi"/>
    <trip id="tx_153" depart="550.80" from="-118575967" to="695502611#1" type="taxi"/>
    <trip id="tx_154" depart="554.40" from="295408452#7" to="39368999#15" type="taxi"/>
    <trip id="tx_155" depart="558.00" from="693885804#0" to="372220804#19" type="taxi"/>
    <trip id="tx_156" depart="561.60" from="1034028677#0" to="1034028678" type="taxi"/>
    <trip id="tx_157" depart="565.20" from="695040105#3" to="695295268" type="taxi"/>
    <trip id="tx_158" depart="568.80" from="696169688" to="295408462#0" type="taxi"/>
    <trip id="tx_159" depart="572.40" from="693885803#26" to="295408452#1" type="taxi"/>
    <trip id="tx_160" depart="576.00" from="160628085#2" to="695429325#1" type="taxi"/>
    <trip id="tx_161" depart="579.60" from="118688839#4" to="295408461#10" type="taxi"/>
    <trip id="tx_162" depart="583.20" from="693111346#0" to="642098832#0" type="taxi"/>
    <trip id="tx_163" depart="586.80" from="1282340735" to="964171425#5" type="taxi"/>
    <trip id="tx_164" depart="590.40" from="695496042#0" to="1280614485" type="taxi"/>
    <trip id="tx_165" depart="594.00" from="118570183#4" to="35950925#0" type="taxi"/>
    <trip id="tx_166" depart="597.60" from="673151142#4" to="199383481-AddedOnRampEdge" type="taxi"/>
    <trip id="tx_167" depart="601.20" from="295408461#1" to="-39368999#9" type="taxi"/>
    <trip id="tx_168" depart="604.80" from="295408452#11" to="39368999#17" type="taxi"/>
    <trip id="tx_169" depart="608.40" from="1280614485" to="-118688839#5" type="taxi"/>
    <trip id="tx_170" depart="612.00" from="1034028675#0" to="910359052#5" type="taxi"/>
    <trip id="tx_171" depart="615.60" from="-118570181#7" to="118566872#1" type="taxi"/>
    <trip id="tx_172" depart="619.20" from="118570175" to="-118673944#6" type="taxi"/>
    <trip id="tx_173" depart="622.80" from="697200467#1" to="295386152#1" type="taxi"/>
    <trip id="tx_174" depart="626.40" from="118673892#0" to="694594970#0" type="taxi"/>
    <trip id="tx_175" depart="630.00" from="697869050#0" to="-828678834" type="taxi"/>
    <trip id="tx_176" depart="633.60" from="-828724684#1" to="118575965" type="taxi"/>
    <trip id="tx_177" depart="637.20" from="-118555049#14" to="676458410#0" type="taxi"/>
    <trip id="tx_178" depart="640.80" from="-828678780" to="1280219261" type="taxi"/>
    <trip id="tx_179" depart="644.40" from="1280219266" to="694774375#0" type="taxi"/>
    <trip id="tx_180" depart="648.00" from="-118672619#2" to="302751284#3" type="taxi"/>
    <trip id="tx_181" depart="651.60" from="698936203#1" to="35950868#4" type="taxi"/>
    <trip id="tx_182" depart="655.20" from="39354228#1" to="-39368999#0" type="taxi"/>
    <trip id="tx_183" depart="658.80" from="118570172#0" to="695496039#2" type="taxi"/>
    <trip id="tx_184" depart="662.40" from="302739240#4" to="1279915896#0" type="taxi"/>
    <trip id="tx_185" depart="666.00" from="295449627#4" to="1034028677#0" type="taxi"/>
    <trip id="tx_186" depart="669.60" from="697200467#0" to="695295268" type="taxi"/>
    <trip id="tx_187" depart="673.20" from="694583900#0" to="302751282-AddedOnRampEdge" type="taxi"/>
    <trip id="tx_188" depart="676.80" from="295408464#0-AddedOffRampEdge" to="295449625#0" type="taxi"/>
    <trip id="tx_189" depart="680.40" from="1280219260#0" to="-828724708" type="taxi"/>
    <trip id="tx_190" depart="684.00" from="295449627#5" to="697200467#0" type="taxi"/>
    <trip id="tx_191" depart="687.60" from="295449627#5" to="1280089201#0" type="taxi"/>
    <trip id="tx_192" depart="691.20" from="694598419#0" to="295408462#10" type="taxi"/>
    <trip id="tx_193" depart="694.80" from="-560329300" to="693416739#0" type="taxi"/>
    <trip id="tx_194" depart="698.40" from="695510007#1" to="302751295#26" type="taxi"/>
    <trip id="tx_195" depart="702.00" from="828678746" to="-118567495" type="taxi"/>
    <trip id="tx_196" depart="705.60" from="160628085#1" to="1034028676#2" type="taxi"/>
    <trip id="tx_197" depart="709.20" from="694598419#1" to="694775628#0" type="taxi"/>
    <trip id="tx_198" depart="712.80" from="964171425#0" to="828678868" type="taxi"/>
    <trip id="tx_199" depart="716.40" from="694600787" to="300949141" type="taxi"/>
    <trip id="tx_200" depart="720.00" from="-828678747" to="-828678778" type="taxi"/>
    <trip id="tx_201" depart="723.60" from="695502613" to="694594970#0" type="taxi"/>
    <trip id="tx_202" depart="727.20" from="1034028675#2" to="295408462#0" type="taxi"/>
    <trip id="tx_203" depart="730.80" from="295408459#1" to="295408452#5" type="taxi"/>
    <trip id="tx_204" depart="734.40" from="295408460#2" to="295408452#16-AddedOffRampEdge" type="taxi"/>
    <trip id="tx_205" depart="738.00" from="408161670#0" to="199383481-AddedOnRampEdge" type="taxi"/>
    <trip id="tx_206" depart="741.60" from="694600787" to="118672444#2" type="taxi"/>
    <trip id="tx_207" depart="745.20" from="295408452#7" to="1282340714" type="taxi"/>
    <trip id="tx_208" depart="748.80" from="-561667996#2" to="295408461#4" type="taxi"/>
    <trip id="tx_209" depart="752.40" from="695510007#1" to="1282340736" type="taxi"/>
    <trip id="tx_210" depart="756.00" from="695504114#1" to="1418093030" type="taxi"/>
    <trip id="tx_211" depart="759.60" from="694600787" to="35950882#8" type="taxi"/>
    <trip id="tx_212" depart="763.20" from="-828724717" to="408161672#0" type="taxi"/>
    <trip id="tx_213" depart="766.80" from="295408459#3" to="694775628#2" type="taxi"/>
    <trip id="tx_214" depart="770.40" from="828724777#1" to="694598419#1-AddedOnRampEdge" type="taxi"/>
    <trip id="tx_215" depart="774.00" from="-372220804#19" to="964171425#4" type="taxi"/>
    <trip id="tx_216" depart="777.60" from="118672606#8" to="35950883#0" type="taxi"/>
    <trip id="tx_217" depart="781.20" from="295408452#16-AddedOffRampEdge" to="-676451738#0" type="taxi"/>
    <trip id="tx_218" depart="784.80" from="408161670#25" to="694715299#1" type="taxi"/>
    <trip id="tx_219" depart="788.40" from="1280219257#0" to="1034028676#0" type="taxi"/>
    <trip id="tx_220" depart="792.00" from="295408452#0" to="160628085#1" type="taxi"/>
    <trip id="tx_221" depart="795.60" from="295449625#0" to="-828678793#0" type="taxi"/>
    <trip id="tx_222" depart="799.20" from="694594970#0" to="1391330070#9" type="taxi"/>
    <trip id="tx_223" depart="802.80" from="964171425#0" to="-372467087#2" type="taxi"/>
    <trip id="tx_224" depart="806.40" from="695510007#0" to="693416739#0" type="taxi"/>
    <trip id="tx_225" depart="810.00" from="673151198#1" to="694598419#1-AddedOnRampEdge" type="taxi"/>
    <trip id="tx_226" depart="813.60" from="-35950868#12" to="295408461#10" type="taxi"/>
    <trip id="tx_227" depart="817.20" from="-372464935#0" to="1280219258#0" type="taxi"/>
    <trip id="tx_228" depart="820.80" from="295408452#1" to="295408452#9" type="taxi"/>
    <trip id="tx_229" depart="824.40" from="828678790" to="-302751295#8" type="taxi"/>
    <trip id="tx_230" depart="828.00" from="295449627#5" to="-561913438#6" type="taxi"/>
    <trip id="tx_231" depart="831.60" from="35950897#13" to="1282340716" type="taxi"/>
    <trip id="tx_232" depart="835.20" from="910359052#7" to="673151142#4" type="taxi"/>
    <trip id="tx_233" depart="838.80" from="-708004447" to="1034028675#0" type="taxi"/>
    <trip id="tx_234" depart="842.40" from="894924691" to="-1255578181" type="taxi"/>
    <trip id="tx_235" depart="846.00" from="408161670#18" to="694775628#0" type="taxi"/>
    <trip id="tx_236" depart="849.60" from="408161670#20" to="-375341805" type="taxi"/>
    <trip id="tx_237" depart="853.20" from="295408452#0" to="-118688839#3" type="taxi"/>
    <trip id="tx_238" depart="856.80" from="1280089201#1" to="1418093030" type="taxi"/>
    <trip id="tx_239" depart="860.40" from="-118570168#8" to="-641074760#1" type="taxi"/>
    <trip id="tx_240" depart="864.00" from="697200467#11" to="695504114#1" type="taxi"/>
    <trip id="tx_241" depart="867.60" from="695025560#0" to="295408452#5" type="taxi"/>
    <trip id="tx_242" depart="871.20" from="694830397" to="695490087#1" type="taxi"/>
    <trip id="tx_243" depart="874.80" from="694583900#0" to="694583900#0" type="taxi"/>
    <trip id="tx_244" depart="878.40" from="-562709015#4" to="828678750#0" type="taxi"/>
    <trip id="tx_245" depart="882.00" from="372464935#5" to="694598419#1" type="taxi"/>
    <trip id="tx_246" depart="885.60" from="-118570159#16" to="295408452#7" type="taxi"/>
    <trip id="tx_247" depart="889.20" from="302751284#3" to="-828678802#0" type="taxi"/>
    <trip id="tx_248" depart="892.80" from="295408459#4" to="694774375#0" type="taxi"/>
    <trip id="tx_249" depart="896.40" from="295408460#2" to="-39368999#13" type="taxi"/>
</routes>
