<?xml version="1.0" encoding="UTF-8"?>

<!-- generated on 2026-03-21 14:11:54.007998 by Eclipse SUMO randomTrips.py v1_26_0+0000-fa7df22d7f1
<configuration>
    <net-file value="D:\WeSaveTime-ASEAN\sumo\danang\danang.net.xml"/>
    <additional-files value="D:\WeSaveTime-ASEAN\sumo\danang\danang.vtypes.xml"/>
    <weights-prefix value="D:\WeSaveTime-ASEAN\sumo\danang\danang.weights"/>
    <output-trip-file value="D:\WeSaveTime-ASEAN\sumo\danang\danang.bs_.trips.xml"/>
    <prefix value="bs_"/>
    <trip-attributes value="type=&quot;bus&quot;"/>
    <fringe-factor value="10"/>
    <random value="True"/>
    <remove-loops value="True"/>
    <end value="600.0"/>
    <period value="9.23"/>
</configuration>
-->

<routes xmlns:xsi="http://www.w3.org/2001/XMLSchema-instance" xsi:noNamespaceSchemaLocation="http://sumo.dlr.de/xsd/routes_file.xsd">
    <trip id="bs_0" depart="0.00" from="39368999#2" to="696169688" type="bus"/>
    <trip id="bs_1" depart="9.23" from="1280614504#0" to="1391330070#12" type="bus"/>
    <trip id="bs_2" depart="18.46" from="676509072#0" to="295408452#10" type="bus"/>
    <trip id="bs_3" depart="27.69" from="-295386152#9" to="689583171#10" type="bus"/>
    <trip id="bs_4" depart="36.92" from="1280614485" to="976025288#1" type="bus"/>
    <trip id="bs_5" depart="46.15" from="-562701505" to="695510007#0" type="bus"/>
    <trip id="bs_6" depart="55.38" from="1280219266" to="695295267#2" type="bus"/>
    <trip id="bs_7" depart="64.61" from="1280219259#1" to="-405962811#1" type="bus"/>
    <trip id="bs_8" depart="73.84" from="694583900#0-AddedOffRampEdge" to="295408462#0" type="bus"/>
    <trip id="bs_9" depart="83.07" from="35950868#4" to="1034028677#0" type="bus"/>
    <trip id="bs_10" depart="92.30" from="695510007#1" to="295449625#0" type="bus"/>
    <trip id="bs_11" depart="101.53" from="-302751295#1" to="-828678837#1" type="bus"/>
    <trip id="bs_12" depart="110.76" from="693885802#2" to="-1346339141#1" type="bus"/>
    <trip id="bs_13" depart="119.99" from="160628085#0" to="910359052#7" type="bus"/>
    <trip id="bs_14" depart="129.22" from="-828678812" to="118570175" type="bus"/>
    <trip id="bs_15" depart="138.45" from="295408463#1" to="695510007#1" type="bus"/>
    <trip id="bs_16" depart="147.68" from="-560329311" to="295408461#7" type="bus"/>
    <trip id="bs_17" depart="156.91" from="1282340736" to="1282340752" type="bus"/>
    <trip id="bs_18" depart="166.14" from="295408452#5" to="1280614505#1" type="bus"/>
    <trip id="bs_19" depart="175.37" from="694830397" to="-643237805" type="bus"/>
    <trip id="bs_20" depart="184.60" from="698936203#7" to="160628085#0" type="bus"/>
    <trip id="bs_21" depart="193.83" from="-1279915898#9" to="696168834#1" type="bus"/>
    <trip id="bs_22" depart="203.06" from="118672464#3" to="695496039#2" type="bus"/>
    <trip id="bs_23" depart="212.29" from="698936203#5" to="118570151#1" type="bus"/>
    <trip id="bs_24" depart="221.52" from="694598419#1-AddedOnRampEdge" to="160628085#1" type="bus"/>
    <trip id="bs_25" depart="230.75" from="295408452#11" to="295408462#0" type="bus"/>
    <trip id="bs_26" depart="239.98" from="695496039#3" to="910359052#7" type="bus"/>
    <trip id="bs_27" depart="249.21" from="-698936202#0" to="39368999#17" type="bus"/>
    <trip id="bs_28" depart="258.44" from="694830397" to="302751282" type="bus"/>
    <trip id="bs_29" depart="267.67" from="-561913438#2" to="-118575975#1" type="bus"/>
    <trip id="bs_30" depart="276.90" from="-372220804#12" to="695496039#2" type="bus"/>
    <trip id="bs_31" depart="286.13" from="642050078#1" to="118672604#0" type="bus"/>
    <trip id="bs_32" depart="295.36" from="1280219259#0" to="676465938#1" type="bus"/>
    <trip id="bs_33" depart="304.59" from="295408459#3" to="698046188#1" type="bus"/>
    <trip id="bs_34" depart="313.82" from="695025562#0" to="372220804#1" type="bus"/>
    <trip id="bs_35" depart="323.05" from="1391330070#12" to="295408452#6" type="bus"/>
    <trip id="bs_36" depart="332.28" from="693885802#0" to="828678748" type="bus"/>
    <trip id="bs_37" depart="341.51" from="1280219257#0" to="295408463#0" type="bus"/>
    <trip id="bs_38" depart="350.74" from="828724752#0" to="302737424#0" type="bus"/>
    <trip id="bs_39" depart="359.97" from="694583900#0-AddedOffRampEdge" to="689583171#10" type="bus"/>
    <trip id="bs_40" depart="369.20" from="641106174" to="641127054" type="bus"/>
    <trip id="bs_41" depart="378.43" from="-828678780" to="295408452#6" type="bus"/>
    <trip id="bs_42" depart="387.66" from="-35950868#19" to="295408461#9" type="bus"/>
    <trip id="bs_43" depart="396.89" from="695504114#1" to="1282340718" type="bus"/>
    <trip id="bs_44" depart="406.12" from="295408464#0" to="295408464#0-AddedOffRampEdge" type="bus"/>
    <trip id="bs_45" depart="415.35" from="-828724760" to="408161670#20" type="bus"/>
    <trip id="bs_46" depart="424.58" from="405962812#2" to="695446625#1" type="bus"/>
    <trip id="bs_47" depart="433.81" from="1280219266" to="-372464933#0" type="bus"/>
    <trip id="bs_48" depart="443.04" from="-39368999#1" to="695496042#0" type="bus"/>
    <trip id="bs_49" depart="452.27" from="1034028677#1" to="372467087#0" type="bus"/>
    <trip id="bs_50" depart="461.50" from="695040105#5" to="695295267#2" type="bus"/>
    <trip id="bs_51" depart="470.73" from="-831070293" to="-118673944#8" type="bus"/>
    <trip id="bs_52" depart="479.96" from="698067307#1" to="295408452#6" type="bus"/>
    <trip id="bs_53" depart="489.19" from="695496042#0" to="695490086#1" type="bus"/>
    <trip id="bs_54" depart="498.42" from="-118570168#3" to="695040105#3" type="bus"/>
    <trip id="bs_55" depart="507.65" from="295408452#16-AddedOffRampEdge" to="695496039#2" type="bus"/>
    <trip id="bs_56" depart="516.88" from="295408468#4" to="-828678777#1" type="bus"/>
    <trip id="bs_57" depart="526.11" from="-39368999#1" to="295408477" type="bus"/>
    <trip id="bs_58" depart="535.34" from="693416739#0" to="295408452#5" type="bus"/>
    <trip id="bs_59" depart="544.57" from="673151196" to="1282340736" type="bus"/>
    <trip id="bs_60" depart="553.80" from="344692547#1" to="-35950882#2" type="bus"/>
    <trip id="bs_61" depart="563.03" from="694830397" to="35950864#22" type="bus"/>
    <trip id="bs_62" depart="572.26" from="-828724764#1" to="302751284#0" type="bus"/>
    <trip id="bs_63" depart="581.49" from="694583900#0" to="295408452#0" type="bus"/>
    <trip id="bs_64" depart="590.72" from="694830396" to="295408452#16-AddedOffRampEdge" type="bus"/>
    <trip id="bs_65" depart="599.95" from="964171425#6" to="1034028676#2" type="bus"/>
</routes>
