<?xml version="1.0" encoding="UTF-8"?>

<!-- generated on 2026-03-24 14:36:56.933561 by Eclipse SUMO randomTrips.py v1_26_0+0000-fa7df22d7f1
<configuration>
    <net-file value="D:\WeSaveTime-ASEAN\sumo\danang\danang.net.xml"/>
    <additional-files value="D:\WeSaveTime-ASEAN\sumo\danang\danang.vtypes.xml"/>
    <weights-prefix value="D:\WeSaveTime-ASEAN\sumo\danang\danang.weights"/>
    <output-trip-file value="D:\WeSaveTime-ASEAN\sumo\danang\danang.sv_.trips.xml"/>
    <prefix value="sv_"/>
    <trip-attributes value="type=&quot;car_suv&quot;"/>
    <fringe-factor value="5"/>
    <random value="True"/>
    <remove-loops value="True"/>
    <end value="600.0"/>
    <period value="4.0"/>
</configuration>
-->

<routes xmlns:xsi="http://www.w3.org/2001/XMLSchema-instance" xsi:noNamespaceSchemaLocation="http://sumo.dlr.de/xsd/routes_file.xsd">
    <trip id="sv_0" depart="0.00" from="1282340736" to="673151142#5" type="car_suv"/>
    <trip id="sv_1" depart="4.00" from="964171425#0" to="-641457630" type="car_suv"/>
    <trip id="sv_2" depart="8.00" from="895450605" to="828678837#0" type="car_suv"/>
    <trip id="sv_3" depart="12.00" from="-828678784" to="695496039#1" type="car_suv"/>
    <trip id="sv_4" depart="16.00" from="1034028676#1" to="35950868#11" type="car_suv"/>
    <trip id="sv_5" depart="20.00" from="-118672607#1" to="-35950959#1" type="car_suv"/>
    <trip id="sv_6" depart="24.00" from="-118575976#0" to="695295267#0" type="car_suv"/>
    <trip id="sv_7" depart="28.00" from="-676465939#3" to="-828678743" type="car_suv"/>
    <trip id="sv_8" depart="32.00" from="673151198#3" to="35950925#7" type="car_suv"/>
    <trip id="sv_9" depart="36.00" from="295408463#1" to="-828395783" type="car_suv"/>
    <trip id="sv_10" depart="40.00" from="-118570169#2" to="295408462#8" type="car_suv"/>
    <trip id="sv_11" depart="44.00" from="35950897#6" to="1280219267" type="car_suv"/>
    <trip id="sv_12" depart="48.00" from="694583900#0-AddedOffRampEdge" to="1280219265" type="car_suv"/>
    <trip id="sv_13" depart="52.00" from="1034028677#0" to="642360965#1" type="car_suv"/>
    <trip id="sv_14" depart="56.00" from="695504114#1" to="-828724797#1" type="car_suv"/>
    <trip id="sv_15" depart="60.00" from="-828724764#0" to="35950925#6" type="car_suv"/>
    <trip id="sv_16" depart="64.00" from="828724684#0" to="-676465939#3" type="car_suv"/>
    <trip id="sv_17" depart="68.00" from="-560329314" to="828678911" type="car_suv"/>
    <trip id="sv_18" depart="72.00" from="694715298" to="676453139#1" type="car_suv"/>
    <trip id="sv_19" depart="76.00" from="1076293830#1" to="-118673929#4" type="car_suv"/>
    <trip id="sv_20" depart="80.00" from="964171425#5" to="-828724768#4" type="car_suv"/>
    <trip id="sv_21" depart="84.00" from="695040552#0" to="-673151144#1" type="car_suv"/>
    <trip id="sv_22" depart="88.00" from="-696755556#1" to="118575970#0" type="car_suv"/>
    <trip id="sv_23" depart="92.00" from="-372220804#13" to="-828678865" type="car_suv"/>
    <trip id="sv_24" depart="96.00" from="118567886#0" to="1282340735" type="car_suv"/>
    <trip id="sv_25" depart="100.00" from="905050168" to="695090346#3" type="car_suv"/>
    <trip id="sv_26" depart="104.00" from="408161670#27" to="302751284#3" type="car_suv"/>
    <trip id="sv_27" depart="108.00" from="-295449629#0" to="673151142#4" type="car_suv"/>
    <trip id="sv_28" depart="112.00" from="1279915897" to="295408462#10" type="car_suv"/>
    <trip id="sv_29" depart="116.00" from="295408459#1" to="-641466472" type="car_suv"/>
    <trip id="sv_30" depart="120.00" from="-118575973#0" to="118672608#0" type="car_suv"/>
    <trip id="sv_31" depart="124.00" from="160628085#2" to="828678801#0" type="car_suv"/>
    <trip id="sv_32" depart="128.00" from="697200467#9" to="35950897#10" type="car_suv"/>
    <trip id="sv_33" depart="132.00" from="-118575972#6" to="302751284#3" type="car_suv"/>
    <trip id="sv_34" depart="136.00" from="673151196" to="118673907" type="car_suv"/>
    <trip id="sv_35" depart="140.00" from="964171425#3" to="1034028678" type="car_suv"/>
    <trip id="sv_36" depart="144.00" from="39368999#9" to="676438752#0" type="car_suv"/>
    <trip id="sv_37" depart="148.00" from="35950897#0" to="295449627#3" type="car_suv"/>
    <trip id="sv_38" depart="152.00" from="1279915900#0" to="35950959#4" type="car_suv"/>
    <trip id="sv_39" depart="156.00" from="1280614485" to="1280219266" type="car_suv"/>
    <trip id="sv_40" depart="160.00" from="-828678869#0" to="695504114#4" type="car_suv"/>
    <trip id="sv_41" depart="164.00" from="696169688" to="295408461#10" type="car_suv"/>
    <trip id="sv_42" depart="168.00" from="828678877" to="695025560#0" type="car_suv"/>
    <trip id="sv_43" depart="172.00" from="828678814#5" to="295408452#16-AddedOffRampEdge" type="car_suv"/>
    <trip id="sv_44" depart="176.00" from="964171425#3" to="828678798#0" type="car_suv"/>
    <trip id="sv_45" depart="180.00" from="694598419#1-AddedOnRampEdge" to="295408452#16" type="car_suv"/>
    <trip id="sv_46" depart="184.00" from="695025559" to="641120965#1" type="car_suv"/>
    <trip id="sv_47" depart="188.00" from="695025562#1" to="964171425#6" type="car_suv"/>
    <trip id="sv_48" depart="192.00" from="-372466114#2" to="1280614485" type="car_suv"/>
    <trip id="sv_49" depart="196.00" from="39368999#10" to="118688839#0" type="car_suv"/>
    <trip id="sv_50" depart="200.00" from="-828724715" to="-39368999#21" type="car_suv"/>
    <trip id="sv_51" depart="204.00" from="408161670#21" to="1280219257#0" type="car_suv"/>
    <trip id="sv_52" depart="208.00" from="673151142#2" to="295128790#10" type="car_suv"/>
    <trip id="sv_53" depart="212.00" from="295408462#12" to="695502614" type="car_suv"/>
    <trip id="sv_54" depart="216.00" from="372220804#15" to="695295267#0" type="car_suv"/>
    <trip id="sv_55" depart="220.00" from="-828678749#1" to="694775628#0" type="car_suv"/>
    <trip id="sv_56" depart="224.00" from="-118575972#6" to="-39368999#12" type="car_suv"/>
    <trip id="sv_57" depart="228.00" from="695295265#0" to="1279915895#1" type="car_suv"/>
    <trip id="sv_58" depart="232.00" from="828724763#3" to="408161670#28" type="car_suv"/>
    <trip id="sv_59" depart="236.00" from="-828678746" to="-118673929#4" type="car_suv"/>
    <trip id="sv_60" depart="240.00" from="-828724699#1" to="695025562#1" type="car_suv"/>
    <trip id="sv_61" depart="244.00" from="35950897#15" to="1280219250" type="car_suv"/>
    <trip id="sv_62" depart="248.00" from="694583900#0-AddedOffRampEdge" to="694598419#1" type="car_suv"/>
    <trip id="sv_63" depart="252.00" from="-1282340733#0" to="1034028675#0" type="car_suv"/>
    <trip id="sv_64" depart="256.00" from="408161670#21" to="408161670#27" type="car_suv"/>
    <trip id="sv_65" depart="260.00" from="696715601" to="1210918872#0" type="car_suv"/>
    <trip id="sv_66" depart="264.00" from="35950897#15" to="295408462#10" type="car_suv"/>
    <trip id="sv_67" depart="268.00" from="642356081#0" to="828678862#2" type="car_suv"/>
    <trip id="sv_68" depart="272.00" from="828724755#0" to="118674615#4" type="car_suv"/>
    <trip id="sv_69" depart="276.00" from="694772625#0" to="295408470#0" type="car_suv"/>
    <trip id="sv_70" depart="280.00" from="693330103#0" to="408161672#1" type="car_suv"/>
    <trip id="sv_71" depart="284.00" from="695295267#0" to="1282340739" type="car_suv"/>
    <trip id="sv_72" depart="288.00" from="693111346#0" to="697200467#8" type="car_suv"/>
    <trip id="sv_73" depart="292.00" from="-118672464#4" to="694598419#1-AddedOnRampEdge" type="car_suv"/>
    <trip id="sv_74" depart="296.00" from="-676453142#0" to="828678816#1" type="car_suv"/>
    <trip id="sv_75" depart="300.00" from="693885803#27" to="694598419#1-AddedOnRampEdge" type="car_suv"/>
    <trip id="sv_76" depart="304.00" from="964171425#4" to="561474249#0" type="car_suv"/>
    <trip id="sv_77" depart="308.00" from="35950868#37" to="-300949141" type="car_suv"/>
    <trip id="sv_78" depart="312.00" from="694598419#1-AddedOnRampEdge" to="372220804#19" type="car_suv"/>
    <trip id="sv_79" depart="316.00" from="302739240#4" to="-676465939#2" type="car_suv"/>
    <trip id="sv_80" depart="320.00" from="118672604#0" to="118575972#3" type="car_suv"/>
    <trip id="sv_81" depart="324.00" from="1210918872#1" to="-828678878#1" type="car_suv"/>
    <trip id="sv_82" depart="328.00" from="39368999#2" to="695496039#0" type="car_suv"/>
    <trip id="sv_83" depart="332.00" from="-372589135#0" to="694601892" type="car_suv"/>
    <trip id="sv_84" depart="336.00" from="35950897#1" to="562709015#0" type="car_suv"/>
    <trip id="sv_85" depart="340.00" from="694715299#1" to="302737424#1" type="car_suv"/>
    <trip id="sv_86" depart="344.00" from="1034028675#0" to="-302751295#14" type="car_suv"/>
    <trip id="sv_87" depart="348.00" from="695502611#1" to="695025562#1" type="car_suv"/>
    <trip id="sv_88" depart="352.00" from="1279915896#0" to="1034028675#6" type="car_suv"/>
    <trip id="sv_89" depart="356.00" from="693416739#3" to="828724755#0" type="car_suv"/>
    <trip id="sv_90" depart="360.00" from="344658497#2" to="698936203#9" type="car_suv"/>
    <trip id="sv_91" depart="364.00" from="-828724747#1" to="1279915895#0" type="car_suv"/>
    <trip id="sv_92" depart="368.00" from="642360965#1" to="118575972#1" type="car_suv"/>
    <trip id="sv_93" depart="372.00" from="295408464#0" to="408161672#0" type="car_suv"/>
    <trip id="sv_94" depart="376.00" from="689583178#1" to="828724748" type="car_suv"/>
    <trip id="sv_95" depart="380.00" from="697200467#1" to="693885804#2" type="car_suv"/>
    <trip id="sv_96" depart="384.00" from="372466116#0" to="1280219257#0" type="car_suv"/>
    <trip id="sv_97" depart="388.00" from="694583900#0-AddedOffRampEdge" to="-828678799" type="car_suv"/>
    <trip id="sv_98" depart="392.00" from="-828724797#1" to="295408452#16-AddedOffRampEdge" type="car_suv"/>
    <trip id="sv_99" depart="396.00" from="-372464937#1" to="35950883#4" type="car_suv"/>
    <trip id="sv_100" depart="400.00" from="1282340739" to="-39368999#3" type="car_suv"/>
    <trip id="sv_101" depart="404.00" from="-118672606#7" to="302751282" type="car_suv"/>
    <trip id="sv_102" depart="408.00" from="695504114#4" to="-828678912#4" type="car_suv"/>
    <trip id="sv_103" depart="412.00" from="-118566872#7" to="1280089201#0" type="car_suv"/>
    <trip id="sv_104" depart="416.00" from="693885804#0" to="694594970#0" type="car_suv"/>
    <trip id="sv_105" depart="420.00" from="694738596" to="676458410#0" type="car_suv"/>
    <trip id="sv_106" depart="424.00" from="295449627#0" to="-405113892#2" type="car_suv"/>
    <trip id="sv_107" depart="428.00" from="695490086#1" to="39368999#16" type="car_suv"/>
    <trip id="sv_108" depart="432.00" from="295408459#4" to="118673944#8" type="car_suv"/>
    <trip id="sv_109" depart="436.00" from="1279915897" to="302751282" type="car_suv"/>
    <trip id="sv_110" depart="440.00" from="1034027336#2" to="-118673928" type="car_suv"/>
    <trip id="sv_111" depart="444.00" from="35950868#4" to="295408452#7" type="car_suv"/>
    <trip id="sv_112" depart="448.00" from="35950897#1" to="-35950942#0" type="car_suv"/>
    <trip id="sv_113" depart="452.00" from="-118575973#0" to="-405113895" type="car_suv"/>
    <trip id="sv_114" depart="456.00" from="695504114#4" to="408161670#28" type="car_suv"/>
    <trip id="sv_115" depart="460.00" from="35950868#5" to="295386152#7" type="car_suv"/>
    <trip id="sv_116" depart="464.00" from="295408452#1" to="828724698" type="car_suv"/>
    <trip id="sv_117" depart="468.00" from="295408459#7" to="-118673947#0" type="car_suv"/>
    <trip id="sv_118" depart="472.00" from="-642356081#1" to="-828678799" type="car_suv"/>
    <trip id="sv_119" depart="476.00" from="694601892" to="39368999#4" type="car_suv"/>
    <trip id="sv_120" depart="480.00" from="695496039#2" to="694594970#0" type="car_suv"/>
    <trip id="sv_121" depart="484.00" from="-828678860#1" to="-35950864#27" type="car_suv"/>
    <trip id="sv_122" depart="488.00" from="693885804#0" to="695502613" type="car_suv"/>
    <trip id="sv_123" depart="492.00" from="-372467083#1" to="39368999#6" type="car_suv"/>
    <trip id="sv_124" depart="496.00" from="1280219259#1" to="828724693" type="car_suv"/>
    <trip id="sv_125" depart="500.00" from="695446623#0" to="1280614485" type="car_suv"/>
    <trip id="sv_126" depart="504.00" from="673151142#4" to="828678773#1" type="car_suv"/>
    <trip id="sv_127" depart="508.00" from="689583176#0" to="35950897#1" type="car_suv"/>
    <trip id="sv_128" depart="512.00" from="695295268" to="302751285#0" type="car_suv"/>
    <trip id="sv_129" depart="516.00" from="1280219259#1" to="1387292391" type="car_suv"/>
    <trip id="sv_130" depart="520.00" from="910359052#3" to="696169688" type="car_suv"/>
    <trip id="sv_131" depart="524.00" from="694772625#0" to="831070297#1" type="car_suv"/>
    <trip id="sv_132" depart="528.00" from="695496039#1" to="295449627#5" type="car_suv"/>
    <trip id="sv_133" depart="532.00" from="35950897#0" to="372467090#1" type="car_suv"/>
    <trip id="sv_134" depart="536.00" from="-676489596#2" to="39368999#15" type="car_suv"/>
    <trip id="sv_135" depart="540.00" from="408161670#27" to="693885802#2" type="car_suv"/>
    <trip id="sv_136" depart="544.00" from="641397122#4" to="-118672607#3" type="car_suv"/>
    <trip id="sv_137" depart="548.00" from="118673929#7" to="1280614485" type="car_suv"/>
    <trip id="sv_138" depart="552.00" from="1034028677#0" to="118672607#3" type="car_suv"/>
    <trip id="sv_139" depart="556.00" from="1034027336#2" to="118673944#0" type="car_suv"/>
    <trip id="sv_140" depart="560.00" from="-256672294" to="694775628#0" type="car_suv"/>
    <trip id="sv_141" depart="564.00" from="408161670#13" to="676509072#0" type="car_suv"/>
    <trip id="sv_142" depart="568.00" from="696169688" to="694598419#1-AddedOnRampEdge" type="car_suv"/>
    <trip id="sv_143" depart="572.00" from="408161670#25" to="35950897#13" type="car_suv"/>
    <trip id="sv_144" depart="576.00" from="1391330071" to="295408452#1" type="car_suv"/>
    <trip id="sv_145" depart="580.00" from="-39368999#15" to="118688839#4" type="car_suv"/>
    <trip id="sv_146" depart="584.00" from="697200467#1" to="199383481-AddedOnRampEdge" type="car_suv"/>
    <trip id="sv_147" depart="588.00" from="372589137#1" to="295408465#2" type="car_suv"/>
    <trip id="sv_148" depart="592.00" from="-118566872#3" to="1165643358" type="car_suv"/>
    <trip id="sv_149" depart="596.00" from="-302751295#14" to="35950925#1" type="car_suv"/>
</routes>
