<?xml version="1.0" encoding="UTF-8"?>

<!-- generated on 2026-03-22 02:06:49.237166 by Eclipse SUMO randomTrips.py v1_26_0+0000-fa7df22d7f1
<configuration>
    <net-file value="D:\WeSaveTime-ASEAN\sumo\danang\danang.net.xml"/>
    <additional-files value="D:\WeSaveTime-ASEAN\sumo\danang\danang.vtypes.xml"/>
    <weights-prefix value="D:\WeSaveTime-ASEAN\sumo\danang\danang.weights"/>
    <output-trip-file value="D:\WeSaveTime-ASEAN\sumo\danang\danang.tx_.trips.xml"/>
    <prefix value="tx_"/>
    <trip-attributes value="type=&quot;taxi&quot;"/>
    <fringe-factor value="5"/>
    <random value="True"/>
    <remove-loops value="True"/>
    <end value="600.0"/>
    <period value="7.5"/>
</configuration>
-->

<routes xmlns:xsi="http://www.w3.org/2001/XMLSchema-instance" xsi:noNamespaceSchemaLocation="http://sumo.dlr.de/xsd/routes_file.xsd">
    <trip id="tx_0" depart="0.00" from="697200467#4-AddedOffRampEdge" to="695295268" type="taxi"/>
    <trip id="tx_1" depart="7.50" from="-295408470#1" to="695446623#1" type="taxi"/>
    <trip id="tx_2" depart="15.00" from="642360965#3" to="562701507#1" type="taxi"/>
    <trip id="tx_3" depart="22.50" from="695025562#1" to="693330103#2" type="taxi"/>
    <trip id="tx_4" depart="30.00" from="35950897#15" to="828724737" type="taxi"/>
    <trip id="tx_5" depart="37.50" from="1280219259#1" to="1282340752" type="taxi"/>
    <trip id="tx_6" depart="45.00" from="1282340737" to="295449627#5" type="taxi"/>
    <trip id="tx_7" depart="52.50" from="694830396" to="118570181#9" type="taxi"/>
    <trip id="tx_8" depart="60.00" from="295408452#1" to="295449627#3" type="taxi"/>
    <trip id="tx_9" depart="67.50" from="35950868#36" to="295408452#0" type="taxi"/>
    <trip id="tx_10" depart="75.00" from="676438752#1" to="1392384121#0" type="taxi"/>
    <trip id="tx_11" depart="82.50" from="-372467087#1" to="695504114#4" type="taxi"/>
    <trip id="tx_12" depart="90.00" from="828724778" to="-295449619#0" type="taxi"/>
    <trip id="tx_13" depart="97.50" from="408161670#21" to="118672607#5" type="taxi"/>
    <trip id="tx_14" depart="105.00" from="695490087#1" to="-118566873#0" type="taxi"/>
    <trip id="tx_15" depart="112.50" from="-828678798#0" to="560329311" type="taxi"/>
    <trip id="tx_16" depart="120.00" from="-828724714#1" to="1279915921" type="taxi"/>
    <trip id="tx_17" depart="127.50" from="295408462#0" to="1280219250" type="taxi"/>
    <trip id="tx_18" depart="135.00" from="828724794" to="118688839#0" type="taxi"/>
    <trip id="tx_19" depart="142.50" from="964171425#6" to="695502613" type="taxi"/>
    <trip id="tx_20" depart="150.00" from="694775628#2" to="-118570168#8" type="taxi"/>
    <trip id="tx_21" depart="157.50" from="295408460#2" to="828724694#2" type="taxi"/>
    <trip id="tx_22" depart="165.00" from="695502613" to="693885804#2" type="taxi"/>
    <trip id="tx_23" depart="172.50" from="-39368999#9" to="1280219257#1" type="taxi"/>
    <trip id="tx_24" depart="180.00" from="39354228#4" to="964171425#0" type="taxi"/>
    <trip id="tx_25" depart="187.50" from="697200467#8" to="695502614" type="taxi"/>
    <trip id="tx_26" depart="195.00" from="693416427" to="295408462#10" type="taxi"/>
    <trip id="tx_27" depart="202.50" from="1282340772" to="35950882#1" type="taxi"/>
    <trip id="tx_28" depart="210.00" from="828724694#0" to="295408459#7" type="taxi"/>
    <trip id="tx_29" depart="217.50" from="695295267#2" to="693885804#0" type="taxi"/>
    <trip id="tx_30" depart="225.00" from="695496039#1" to="695496039#1" type="taxi"/>
    <trip id="tx_31" depart="232.50" from="295449627#3" to="118672607#0" type="taxi"/>
    <trip id="tx_32" depart="240.00" from="-372464936" to="1418093030" type="taxi"/>
    <trip id="tx_33" depart="247.50" from="964171425#3" to="-35950942#2" type="taxi"/>
    <trip id="tx_34" depart="255.00" from="1282340735" to="697200467#1" type="taxi"/>
    <trip id="tx_35" depart="262.50" from="-828724775" to="160628085#0" type="taxi"/>
    <trip id="tx_36" depart="270.00" from="408161670#0" to="-562701502#1" type="taxi"/>
    <trip id="tx_37" depart="277.50" from="-118673944#2" to="295408452#16-AddedOffRampEdge" type="taxi"/>
    <trip id="tx_38" depart="285.00" from="697200467#8" to="-828724763#0" type="taxi"/>
    <trip id="tx_39" depart="292.50" from="828678799" to="295408462#10" type="taxi"/>
    <trip id="tx_40" depart="300.00" from="693330103#0" to="295408452#16" type="taxi"/>
    <trip id="tx_41" depart="307.50" from="295408461#4" to="-118566873#0" type="taxi"/>
    <trip id="tx_42" depart="315.00" from="295408468#4" to="1282340713#0" type="taxi"/>
    <trip id="tx_43" depart="322.50" from="-562701502#3" to="199383481-AddedOnRampEdge" type="taxi"/>
    <trip id="tx_44" depart="330.00" from="828724725#0" to="118673907" type="taxi"/>
    <trip id="tx_45" depart="337.50" from="-118570181#4" to="1426764507#2" type="taxi"/>
    <trip id="tx_46" depart="345.00" from="693416739#3" to="-828724700#2" type="taxi"/>
    <trip id="tx_47" depart="352.50" from="160628085#0" to="39368999#2" type="taxi"/>
    <trip id="tx_48" depart="360.00" from="828678769#0" to="-372220804#16" type="taxi"/>
    <trip id="tx_49" depart="367.50" from="697200467#4" to="35950925#9" type="taxi"/>
    <trip id="tx_50" depart="375.00" from="408161670#22" to="-562701502#3" type="taxi"/>
    <trip id="tx_51" depart="382.50" from="695496039#2" to="695496039#2" type="taxi"/>
    <trip id="tx_52" depart="390.00" from="698046188#1" to="118575975#1" type="taxi"/>
    <trip id="tx_53" depart="397.50" from="694830397" to="693885804#2" type="taxi"/>
    <trip id="tx_54" depart="405.00" from="694775628#0" to="-828678822#1" type="taxi"/>
    <trip id="tx_55" depart="412.50" from="372589137#0" to="676509076#0" type="taxi"/>
    <trip id="tx_56" depart="420.00" from="-372464931#3" to="1280089222" type="taxi"/>
    <trip id="tx_57" depart="427.50" from="405962815#0" to="673151142#5" type="taxi"/>
    <trip id="tx_58" depart="435.00" from="-828724698" to="-695223500" type="taxi"/>
    <trip id="tx_59" depart="442.50" from="-35950868#6" to="695446623#0" type="taxi"/>
    <trip id="tx_60" depart="450.00" from="964171425#2" to="295449627#3" type="taxi"/>
    <trip id="tx_61" depart="457.50" from="118573606#4" to="295408452#5" type="taxi"/>
    <trip id="tx_62" depart="465.00" from="1280219260#0" to="408161670#23" type="taxi"/>
    <trip id="tx_63" depart="472.50" from="828678826#0" to="828724724#2" type="taxi"/>
    <trip id="tx_64" depart="480.00" from="694598419#0" to="673151142#2" type="taxi"/>
    <trip id="tx_65" depart="487.50" from="-828678776" to="295408465#2-AddedOnRampEdge" type="taxi"/>
    <trip id="tx_66" depart="495.00" from="295408452#6" to="698046188#1" type="taxi"/>
    <trip id="tx_67" depart="502.50" from="118673921#3" to="-118570183#0" type="taxi"/>
    <trip id="tx_68" depart="510.00" from="1034028675#2" to="695295267#0" type="taxi"/>
    <trip id="tx_69" depart="517.50" from="-118570183#2" to="693416739#3" type="taxi"/>
    <trip id="tx_70" depart="525.00" from="694830395#0" to="694598419#1-AddedOnRampEdge" type="taxi"/>
    <trip id="tx_71" depart="532.50" from="118573606#8" to="1392384121#0" type="taxi"/>
    <trip id="tx_72" depart="540.00" from="641397122#4" to="641120965#0" type="taxi"/>
    <trip id="tx_73" depart="547.50" from="1282340731" to="118672619#0" type="taxi"/>
    <trip id="tx_74" depart="555.00" from="1210918872#1" to="694598419#1-AddedOnRampEdge" type="taxi"/>
    <trip id="tx_75" depart="562.50" from="-828678769#0" to="697200467#10" type="taxi"/>
    <trip id="tx_76" depart="570.00" from="295128790#0" to="295408452#16-AddedOffRampEdge" type="taxi"/>
    <trip id="tx_77" depart="577.50" from="408161670#18" to="-676438753#1" type="taxi"/>
    <trip id="tx_78" depart="585.00" from="693885802#2" to="-828724714#1" type="taxi"/>
    <trip id="tx_79" depart="592.50" from="118673886#0" to="895449538" type="taxi"/>
</routes>
