<?xml version="1.0" encoding="UTF-8"?>

<!-- generated on 2026-03-24 14:36:59.699107 by Eclipse SUMO randomTrips.py v1_26_0+0000-fa7df22d7f1
<configuration>
    <net-file value="D:\WeSaveTime-ASEAN\sumo\danang\danang.net.xml"/>
    <additional-files value="D:\WeSaveTime-ASEAN\sumo\danang\danang.vtypes.xml"/>
    <weights-prefix value="D:\WeSaveTime-ASEAN\sumo\danang\danang.weights"/>
    <output-trip-file value="D:\WeSaveTime-ASEAN\sumo\danang\danang.tx_.trips.xml"/>
    <prefix value="tx_"/>
    <trip-attributes value="type=&quot;taxi&quot;"/>
    <fringe-factor value="5"/>
    <random value="True"/>
    <remove-loops value="True"/>
    <end value="600.0"/>
    <period value="4.0"/>
</configuration>
-->

<routes xmlns:xsi="http://www.w3.org/2001/XMLSchema-instance" xsi:noNamespaceSchemaLocation="http://sumo.dlr.de/xsd/routes_file.xsd">
    <trip id="tx_0" depart="0.00" from="372466120#2" to="1034028676#0" type="taxi"/>
    <trip id="tx_1" depart="4.00" from="1280089201#1" to="321069061" type="taxi"/>
    <trip id="tx_2" depart="8.00" from="828678860#2" to="408161670#28" type="taxi"/>
    <trip id="tx_3" depart="12.00" from="-828678816#0" to="-828678838" type="taxi"/>
    <trip id="tx_4" depart="16.00" from="1034028677#0" to="1034028678" type="taxi"/>
    <trip id="tx_5" depart="20.00" from="-676438752#3" to="-828678860#3" type="taxi"/>
    <trip id="tx_6" depart="24.00" from="641397122#4" to="1280089201#1" type="taxi"/>
    <trip id="tx_7" depart="28.00" from="-828724700#3" to="964171425#0" type="taxi"/>
    <trip id="tx_8" depart="32.00" from="673632547" to="35950897#6" type="taxi"/>
    <trip id="tx_9" depart="36.00" from="694775628#0" to="408161670#27" type="taxi"/>
    <trip id="tx_10" depart="40.00" from="1282340718" to="-118673944#8" type="taxi"/>
    <trip id="tx_11" depart="44.00" from="35950897#13" to="160628085#1" type="taxi"/>
    <trip id="tx_12" depart="48.00" from="408161670#0" to="695295267#2" type="taxi"/>
    <trip id="tx_13" depart="52.00" from="35950925#3" to="696168834#1" type="taxi"/>
    <trip id="tx_14" depart="56.00" from="118672606#2" to="1280219265" type="taxi"/>
    <trip id="tx_15" depart="60.00" from="696168834#1" to="408161670#13" type="taxi"/>
    <trip id="tx_16" depart="64.00" from="964171425#4" to="697200467#4-AddedOffRampEdge" type="taxi"/>
    <trip id="tx_17" depart="68.00" from="698936203#3" to="694767769" type="taxi"/>
    <trip id="tx_18" depart="72.00" from="1280089201#1" to="1280219260#0" type="taxi"/>
    <trip id="tx_19" depart="76.00" from="295408460#3" to="695446623#0" type="taxi"/>
    <trip id="tx_20" depart="80.00" from="118673929#2" to="295449625#1" type="taxi"/>
    <trip id="tx_21" depart="84.00" from="695025562#1" to="295449627#4" type="taxi"/>
    <trip id="tx_22" depart="88.00" from="1034028675#6" to="344692547#1" type="taxi"/>
    <trip id="tx_23" depart="92.00" from="695496040" to="1282340737" type="taxi"/>
    <trip id="tx_24" depart="96.00" from="1280219260#1" to="1282340717#2" type="taxi"/>
    <trip id="tx_25" depart="100.00" from="697200467#0" to="302751287" type="taxi"/>
    <trip id="tx_26" depart="104.00" from="695025562#0" to="676509072#2" type="taxi"/>
    <trip id="tx_27" depart="108.00" from="-828678814#2" to="-695027208" type="taxi"/>
    <trip id="tx_28" depart="112.00" from="295449627#0" to="910359052#0" type="taxi"/>
    <trip id="tx_29" depart="116.00" from="695295267#0" to="-562701502#1" type="taxi"/>
    <trip id="tx_30" depart="120.00" from="642047428" to="563780766" type="taxi"/>
    <trip id="tx_31" depart="124.00" from="694583900#0-AddedOffRampEdge" to="295408468#4" type="taxi"/>
    <trip id="tx_32" depart="128.00" from="694772625#0" to="35950868#14" type="taxi"/>
    <trip id="tx_33" depart="132.00" from="696168834#1" to="828678769#1" type="taxi"/>
    <trip id="tx_34" depart="136.00" from="35950959#1" to="295408452#11" type="taxi"/>
    <trip id="tx_35" depart="140.00" from="1280219259#1" to="697200467#0" type="taxi"/>
    <trip id="tx_36" depart="144.00" from="295408459#4" to="372466120#0" type="taxi"/>
    <trip id="tx_37" depart="148.00" from="641092779" to="-689583176#3" type="taxi"/>
    <trip id="tx_38" depart="152.00" from="1034028676#1" to="39368999#17" type="taxi"/>
    <trip id="tx_39" depart="156.00" from="1280089201#0" to="-35950864#22" type="taxi"/>
    <trip id="tx_40" depart="160.00" from="697200467#7" to="641077469" type="taxi"/>
    <trip id="tx_41" depart="164.00" from="695496039#1" to="-828724725#1" type="taxi"/>
    <trip id="tx_42" depart="168.00" from="302751295#17" to="695496039#0" type="taxi"/>
    <trip id="tx_43" depart="172.00" from="486510207" to="673151142#5" type="taxi"/>
    <trip id="tx_44" depart="176.00" from="-118570159#11" to="-118567489#1" type="taxi"/>
    <trip id="tx_45" depart="180.00" from="693885802#2" to="1210918872#0" type="taxi"/>
    <trip id="tx_46" depart="184.00" from="295408461#4" to="1034028675#0" type="taxi"/>
    <trip id="tx_47" depart="188.00" from="828678817#2" to="302751282" type="taxi"/>
    <trip id="tx_48" depart="192.00" from="1282340772" to="695496040" type="taxi"/>
    <trip id="tx_49" depart="196.00" from="-676455250#1" to="694598419#1" type="taxi"/>
    <trip id="tx_50" depart="200.00" from="1210918872#0" to="1282340737" type="taxi"/>
    <trip id="tx_51" depart="204.00" from="-828678910" to="-1445913016" type="taxi"/>
    <trip id="tx_52" depart="208.00" from="295408468#0" to="302751295#2" type="taxi"/>
    <trip id="tx_53" depart="212.00" from="408161670#22" to="-1355319663" type="taxi"/>
    <trip id="tx_54" depart="216.00" from="295408463#0" to="695496039#2" type="taxi"/>
    <trip id="tx_55" depart="220.00" from="694594970#0" to="-828678749#1" type="taxi"/>
    <trip id="tx_56" depart="224.00" from="1280089201#1" to="295408452#9" type="taxi"/>
    <trip id="tx_57" depart="228.00" from="300947940" to="-35950883#6" type="taxi"/>
    <trip id="tx_58" depart="232.00" from="695040105#3" to="-118688839#4" type="taxi"/>
    <trip id="tx_59" depart="236.00" from="295449625#1" to="1034028676#2" type="taxi"/>
    <trip id="tx_60" depart="240.00" from="408161670#20" to="693885804#0" type="taxi"/>
    <trip id="tx_61" depart="244.00" from="695025562#1" to="694598419#1" type="taxi"/>
    <trip id="tx_62" depart="248.00" from="-828678810#2" to="35950864#22" type="taxi"/>
    <trip id="tx_63" depart="252.00" from="695295268" to="1280219265" type="taxi"/>
    <trip id="tx_64" depart="256.00" from="372464935#4" to="-642050078#0" type="taxi"/>
    <trip id="tx_65" depart="260.00" from="694830396" to="1418093030" type="taxi"/>
    <trip id="tx_66" depart="264.00" from="695090346#1" to="1391330070#6" type="taxi"/>
    <trip id="tx_67" depart="268.00" from="964171425#4" to="694598419#1" type="taxi"/>
    <trip id="tx_68" depart="272.00" from="698936203#9" to="-828724769" type="taxi"/>
    <trip id="tx_69" depart="276.00" from="693416739#0" to="695025560#0" type="taxi"/>
    <trip id="tx_70" depart="280.00" from="828678876#0" to="696701808" type="taxi"/>
    <trip id="tx_71" depart="284.00" from="1279915895#1" to="641127054" type="taxi"/>
    <trip id="tx_72" depart="288.00" from="693885802#0" to="-641397119#0" type="taxi"/>
    <trip id="tx_73" depart="292.00" from="964171425#3" to="-295449629#0" type="taxi"/>
    <trip id="tx_74" depart="296.00" from="673151179#1" to="295408465#2" type="taxi"/>
    <trip id="tx_75" depart="300.00" from="696755556#1" to="828678901" type="taxi"/>
    <trip id="tx_76" depart="304.00" from="695040105#3" to="295408462#0" type="taxi"/>
    <trip id="tx_77" depart="308.00" from="828678814#2" to="343417844#0" type="taxi"/>
    <trip id="tx_78" depart="312.00" from="828724748" to="-1446429434#2" type="taxi"/>
    <trip id="tx_79" depart="316.00" from="-344692547#3" to="694601892" type="taxi"/>
    <trip id="tx_80" depart="320.00" from="1280089201#2" to="118575975#2" type="taxi"/>
    <trip id="tx_81" depart="324.00" from="-1379125025" to="35950959#1" type="taxi"/>
    <trip id="tx_82" depart="328.00" from="295408452#9" to="828678907" type="taxi"/>
    <trip id="tx_83" depart="332.00" from="676712671" to="-118673892#1" type="taxi"/>
    <trip id="tx_84" depart="336.00" from="694767769" to="696169687#1" type="taxi"/>
    <trip id="tx_85" depart="340.00" from="695496039#1" to="561913438#3" type="taxi"/>
    <trip id="tx_86" depart="344.00" from="689583171#11" to="-561474249#1" type="taxi"/>
    <trip id="tx_87" depart="348.00" from="695040105#3" to="-118673944#0" type="taxi"/>
    <trip id="tx_88" depart="352.00" from="-118672619#4" to="695446625#1" type="taxi"/>
    <trip id="tx_89" depart="356.00" from="-673151179#0" to="295408461#0" type="taxi"/>
    <trip id="tx_90" depart="360.00" from="-695090346#0" to="689583171#10" type="taxi"/>
    <trip id="tx_91" depart="364.00" from="408161670#16" to="118575973#1" type="taxi"/>
    <trip id="tx_92" depart="368.00" from="697200467#0" to="696169687#1" type="taxi"/>
    <trip id="tx_93" depart="372.00" from="295449627#2" to="-118672299#1" type="taxi"/>
    <trip id="tx_94" depart="376.00" from="1034028676#0" to="295408452#7" type="taxi"/>
    <trip id="tx_95" depart="380.00" from="828678806" to="295128790#4" type="taxi"/>
    <trip id="tx_96" depart="384.00" from="300949141" to="35950897#10" type="taxi"/>
    <trip id="tx_97" depart="388.00" from="1280219265" to="694598419#1-AddedOnRampEdge" type="taxi"/>
    <trip id="tx_98" depart="392.00" from="118672606#9" to="302751282-AddedOnRampEdge" type="taxi"/>
    <trip id="tx_99" depart="396.00" from="697200467#4-AddedOffRampEdge" to="693416739#3" type="taxi"/>
    <trip id="tx_100" depart="400.00" from="-676453142#0" to="-321069038#1" type="taxi"/>
    <trip id="tx_101" depart="404.00" from="295128790#10" to="694594970#0" type="taxi"/>
    <trip id="tx_102" depart="408.00" from="295408461#1" to="1034027336#2" type="taxi"/>
    <trip id="tx_103" depart="412.00" from="-118567884" to="779462187#1" type="taxi"/>
    <trip id="tx_104" depart="416.00" from="1165643361" to="295386152#0" type="taxi"/>
    <trip id="tx_105" depart="420.00" from="295408452#10" to="-673151144#0" type="taxi"/>
    <trip id="tx_106" depart="424.00" from="295408462#12" to="695496039#0" type="taxi"/>
    <trip id="tx_107" depart="428.00" from="302739239#1" to="-118673944#5" type="taxi"/>
    <trip id="tx_108" depart="432.00" from="1034028676#1" to="1418093030" type="taxi"/>
    <trip id="tx_109" depart="436.00" from="344658497#1" to="302751295#9" type="taxi"/>
    <trip id="tx_110" depart="440.00" from="693416427" to="910359052#8" type="taxi"/>
    <trip id="tx_111" depart="444.00" from="695510007#0" to="-118570151#1" type="taxi"/>
    <trip id="tx_112" depart="448.00" from="676438752#5" to="295408462#12" type="taxi"/>
    <trip id="tx_113" depart="452.00" from="694830397" to="118570164#3" type="taxi"/>
    <trip id="tx_114" depart="456.00" from="-828724717" to="689583171#10" type="taxi"/>
    <trip id="tx_115" depart="460.00" from="295449625#0" to="408161670#16" type="taxi"/>
    <trip id="tx_116" depart="464.00" from="696168834#1" to="295408452#5" type="taxi"/>
    <trip id="tx_117" depart="468.00" from="-828678812" to="408161670#22" type="taxi"/>
    <trip id="tx_118" depart="472.00" from="160628085#2" to="295449625#0" type="taxi"/>
    <trip id="tx_119" depart="476.00" from="695025560#0" to="1280219259#0" type="taxi"/>
    <trip id="tx_120" depart="480.00" from="302751286#0" to="1280219250" type="taxi"/>
    <trip id="tx_121" depart="484.00" from="295408452#5" to="-828724718" type="taxi"/>
    <trip id="tx_122" depart="488.00" from="673151142#4" to="828678912#2" type="taxi"/>
    <trip id="tx_123" depart="492.00" from="-1387292390#0" to="118573606#10" type="taxi"/>
    <trip id="tx_124" depart="496.00" from="295408452#16-AddedOffRampEdge" to="641397122#1" type="taxi"/>
    <trip id="tx_125" depart="500.00" from="689583176#0" to="695496039#2" type="taxi"/>
    <trip id="tx_126" depart="504.00" from="295449625#0" to="372220804#1" type="taxi"/>
    <trip id="tx_127" depart="508.00" from="118570181#0" to="295408462#0" type="taxi"/>
    <trip id="tx_128" depart="512.00" from="695025560#0" to="1280219261" type="taxi"/>
    <trip id="tx_129" depart="516.00" from="695090346#3" to="-118570168#3" type="taxi"/>
    <trip id="tx_130" depart="520.00" from="408161670#16" to="408161672#1" type="taxi"/>
    <trip id="tx_131" depart="524.00" from="-673151198#0" to="118672633#0" type="taxi"/>
    <trip id="tx_132" depart="528.00" from="696168834#1" to="695025562#1" type="taxi"/>
    <trip id="tx_133" depart="532.00" from="302751284#0" to="118555049#15" type="taxi"/>
    <trip id="tx_134" depart="536.00" from="1282340735" to="1034028677#0" type="taxi"/>
    <trip id="tx_135" depart="540.00" from="693885803#27" to="1034028676#1" type="taxi"/>
    <trip id="tx_136" depart="544.00" from="694598419#0" to="302751284#0" type="taxi"/>
    <trip id="tx_137" depart="548.00" from="300947936" to="1280219257#1" type="taxi"/>
    <trip id="tx_138" depart="552.00" from="1280219266" to="-372220804#20" type="taxi"/>
    <trip id="tx_139" depart="556.00" from="693416427" to="697200467#11" type="taxi"/>
    <trip id="tx_140" depart="560.00" from="375341805" to="118672606#3" type="taxi"/>
    <trip id="tx_141" depart="564.00" from="697822848#3" to="-35950864#7" type="taxi"/>
    <trip id="tx_142" depart="568.00" from="828678874#2" to="895430059" type="taxi"/>
    <trip id="tx_143" depart="572.00" from="-1207701497" to="118570159#14" type="taxi"/>
    <trip id="tx_144" depart="576.00" from="695446625#0" to="302739240#4" type="taxi"/>
    <trip id="tx_145" depart="580.00" from="693885803#27" to="-405113892#3" type="taxi"/>
    <trip id="tx_146" depart="584.00" from="1446429434#0" to="642451374" type="taxi"/>
    <trip id="tx_147" depart="588.00" from="695295267#0" to="295408452#8" type="taxi"/>
    <trip id="tx_148" depart="592.00" from="-35950959#6" to="295408452#5" type="taxi"/>
    <trip id="tx_149" depart="596.00" from="-118570164#0" to="295408459#7" type="taxi"/>
</routes>
