<?xml version="1.0" encoding="UTF-8"?>

<!-- generated on 2026-03-16 23:18:12.715253 by Eclipse SUMO randomTrips.py v1.26.0
<configuration>
    <net-file value="F:\Newgeneration\FlowMindAI\sumo\danang\danang.net.xml"/>
    <additional-files value="F:\Newgeneration\FlowMindAI\sumo\danang\danang.vtypes.xml"/>
    <weights-prefix value="F:\Newgeneration\FlowMindAI\sumo\danang\danang.weights"/>
    <output-trip-file value="F:\Newgeneration\FlowMindAI\sumo\danang\danang.tk_.trips.xml"/>
    <prefix value="tk_"/>
    <trip-attributes value="type=&quot;truck&quot;"/>
    <fringe-factor value="8"/>
    <random value="True"/>
    <remove-loops value="True"/>
    <period value="12.0"/>
</configuration>
-->

<routes xmlns:xsi="http://www.w3.org/2001/XMLSchema-instance" xsi:noNamespaceSchemaLocation="http://sumo.dlr.de/xsd/routes_file.xsd">
    <trip id="tk_0" depart="0.00" from="-35950883#9" to="295408459#5" type="truck"/>
    <trip id="tk_1" depart="12.00" from="696168834#0" to="828678800" type="truck"/>
    <trip id="tk_2" depart="24.00" from="695295267#0" to="1034028675#0" type="truck"/>
    <trip id="tk_3" depart="36.00" from="372467087#0" to="-828678877" type="truck"/>
    <trip id="tk_4" depart="48.00" from="408161670#18" to="35950925#2" type="truck"/>
    <trip id="tk_5" depart="60.00" from="689583171#11" to="-118672606#5" type="truck"/>
    <trip id="tk_6" depart="72.00" from="695502611#0" to="1034028675#6" type="truck"/>
    <trip id="tk_7" depart="84.00" from="160628085#0" to="-118575967" type="truck"/>
    <trip id="tk_8" depart="96.00" from="160628085#1" to="828678871" type="truck"/>
    <trip id="tk_9" depart="108.00" from="1282340718" to="39368999#9" type="truck"/>
    <trip id="tk_10" depart="120.00" from="1282340737" to="35950897#6" type="truck"/>
    <trip id="tk_11" depart="132.00" from="295408459#0" to="695295265#0" type="truck"/>
    <trip id="tk_12" depart="144.00" from="693885802#2" to="695295265#0" type="truck"/>
    <trip id="tk_13" depart="156.00" from="-676453138#0" to="295408461#5" type="truck"/>
    <trip id="tk_14" depart="168.00" from="697200467#9" to="695295268" type="truck"/>
    <trip id="tk_15" depart="180.00" from="1280089201#1" to="910359052#0" type="truck"/>
    <trip id="tk_16" depart="192.00" from="35950897#6" to="160628085#0" type="truck"/>
    <trip id="tk_17" depart="204.00" from="1279915921" to="-828678826#0" type="truck"/>
    <trip id="tk_18" depart="216.00" from="1282340739" to="695040105#5" type="truck"/>
    <trip id="tk_19" depart="228.00" from="-39368999#8" to="295394152#0" type="truck"/>
    <trip id="tk_20" depart="240.00" from="-39368999#2" to="695504114#4" type="truck"/>
    <trip id="tk_21" depart="252.00" from="1279915900#2" to="1282340717#1" type="truck"/>
    <trip id="tk_22" depart="264.00" from="-673151181" to="295408462#0" type="truck"/>
    <trip id="tk_23" depart="276.00" from="118570147#0" to="693416739#3" type="truck"/>
    <trip id="tk_24" depart="288.00" from="35950897#10" to="295408461#7" type="truck"/>
    <trip id="tk_25" depart="300.00" from="1280219260#0" to="-642353277" type="truck"/>
    <trip id="tk_26" depart="312.00" from="-1446429434#2" to="302751295#15" type="truck"/>
    <trip id="tk_27" depart="324.00" from="-676438753#1" to="693885803#17" type="truck"/>
    <trip id="tk_28" depart="336.00" from="695040105#3" to="295408465#1" type="truck"/>
    <trip id="tk_29" depart="348.00" from="408161670#20" to="-405113892#3" type="truck"/>
    <trip id="tk_30" depart="360.00" from="-828724780" to="695504114#4" type="truck"/>
    <trip id="tk_31" depart="372.00" from="910359052#5" to="118566872#11" type="truck"/>
    <trip id="tk_32" depart="384.00" from="1034028676#1" to="694601892" type="truck"/>
    <trip id="tk_33" depart="396.00" from="693885802#2" to="-39368999#12" type="truck"/>
    <trip id="tk_34" depart="408.00" from="1391330070#6" to="-676438752#3" type="truck"/>
    <trip id="tk_35" depart="420.00" from="372464935#2" to="828678846" type="truck"/>
    <trip id="tk_36" depart="432.00" from="1280219260#1" to="695025562#0" type="truck"/>
    <trip id="tk_37" depart="444.00" from="295408461#1" to="693885803#27" type="truck"/>
    <trip id="tk_38" depart="456.00" from="118570183#3" to="697200467#0" type="truck"/>
    <trip id="tk_39" depart="468.00" from="-35950868#8" to="39368999#3" type="truck"/>
    <trip id="tk_40" depart="480.00" from="693416427" to="295408462#10" type="truck"/>
    <trip id="tk_41" depart="492.00" from="695502614" to="295408461#9" type="truck"/>
    <trip id="tk_42" depart="504.00" from="694601892" to="828724795#0" type="truck"/>
    <trip id="tk_43" depart="516.00" from="910359052#9" to="408161672#0" type="truck"/>
    <trip id="tk_44" depart="528.00" from="39368999#9" to="-302751295#5" type="truck"/>
    <trip id="tk_45" depart="540.00" from="295128790#4" to="-828678774" type="truck"/>
    <trip id="tk_46" depart="552.00" from="302751284#3" to="-673151179#0" type="truck"/>
    <trip id="tk_47" depart="564.00" from="698936203#5" to="39368999#17" type="truck"/>
    <trip id="tk_48" depart="576.00" from="-39368999#3" to="295408462#8" type="truck"/>
    <trip id="tk_49" depart="588.00" from="563780766" to="295128790#4" type="truck"/>
    <trip id="tk_50" depart="600.00" from="-302751295#4" to="295408452#11" type="truck"/>
    <trip id="tk_51" depart="612.00" from="-1282340713#1" to="695490086#1" type="truck"/>
    <trip id="tk_52" depart="624.00" from="697200467#11" to="408161672#0" type="truck"/>
    <trip id="tk_53" depart="636.00" from="-562701502#4" to="697200463#1" type="truck"/>
    <trip id="tk_54" depart="648.00" from="295408465#2-AddedOnRampEdge" to="295408465#2" type="truck"/>
    <trip id="tk_55" depart="660.00" from="343237264#1" to="779462187#1" type="truck"/>
    <trip id="tk_56" depart="672.00" from="295449627#5" to="295408465#2" type="truck"/>
    <trip id="tk_57" depart="684.00" from="693416739#3" to="1034028678" type="truck"/>
    <trip id="tk_58" depart="696.00" from="1391330070#12" to="694601892" type="truck"/>
    <trip id="tk_59" depart="708.00" from="295408464#0" to="408161670#0" type="truck"/>
    <trip id="tk_60" depart="720.00" from="118570168#9" to="302739240#4" type="truck"/>
    <trip id="tk_61" depart="732.00" from="693330103#0" to="-828678741#1" type="truck"/>
    <trip id="tk_62" depart="744.00" from="694598419#0" to="779462187#1" type="truck"/>
    <trip id="tk_63" depart="756.00" from="344658497#3" to="-828678860#4" type="truck"/>
    <trip id="tk_64" depart="768.00" from="641423230" to="295408461#4" type="truck"/>
    <trip id="tk_65" depart="780.00" from="-642047427#1" to="-118555049#4" type="truck"/>
    <trip id="tk_66" depart="792.00" from="694600787" to="1280219265" type="truck"/>
    <trip id="tk_67" depart="804.00" from="694583900#0-AddedOffRampEdge" to="-35950882#14" type="truck"/>
    <trip id="tk_68" depart="816.00" from="695496039#2" to="828678745#0" type="truck"/>
    <trip id="tk_69" depart="828.00" from="694775628#0" to="408161672#1" type="truck"/>
    <trip id="tk_70" depart="840.00" from="-35950942#1" to="695446625#1" type="truck"/>
    <trip id="tk_71" depart="852.00" from="-828678784" to="-118575968#1" type="truck"/>
    <trip id="tk_72" depart="864.00" from="693885804#0" to="695496039#3" type="truck"/>
    <trip id="tk_73" depart="876.00" from="695030266" to="561913437#4" type="truck"/>
    <trip id="tk_74" depart="888.00" from="694202154#0" to="-39368999#14" type="truck"/>
    <trip id="tk_75" depart="900.00" from="828724735" to="295408465#2" type="truck"/>
    <trip id="tk_76" depart="912.00" from="694601892" to="408161670#13" type="truck"/>
    <trip id="tk_77" depart="924.00" from="1391330071" to="1280089222" type="truck"/>
    <trip id="tk_78" depart="936.00" from="295408452#1" to="-1282340713#1" type="truck"/>
    <trip id="tk_79" depart="948.00" from="694202154#0" to="673151142#4" type="truck"/>
    <trip id="tk_80" depart="960.00" from="695502611#0" to="35950868#29" type="truck"/>
    <trip id="tk_81" depart="972.00" from="-828724757#0" to="295408452#0" type="truck"/>
    <trip id="tk_82" depart="984.00" from="295408459#4" to="1279915897" type="truck"/>
    <trip id="tk_83" depart="996.00" from="689583178#3" to="1280089201#1" type="truck"/>
    <trip id="tk_84" depart="1008.00" from="-118672606#2" to="295408452#16" type="truck"/>
    <trip id="tk_85" depart="1020.00" from="695040105#3" to="302751295#17" type="truck"/>
    <trip id="tk_86" depart="1032.00" from="694600787" to="295408452#11" type="truck"/>
    <trip id="tk_87" depart="1044.00" from="689583171#11" to="964171425#0" type="truck"/>
    <trip id="tk_88" depart="1056.00" from="118672606#2" to="698051272" type="truck"/>
    <trip id="tk_89" depart="1068.00" from="828724723" to="295408452#1" type="truck"/>
    <trip id="tk_90" depart="1080.00" from="1280219260#0" to="910359052#5" type="truck"/>
    <trip id="tk_91" depart="1092.00" from="295408452#7" to="-39368999#20" type="truck"/>
    <trip id="tk_92" depart="1104.00" from="295408463#1" to="642486432" type="truck"/>
    <trip id="tk_93" depart="1116.00" from="-828724697#1" to="1280219258#0" type="truck"/>
    <trip id="tk_94" depart="1128.00" from="695025562#0" to="1282340735" type="truck"/>
    <trip id="tk_95" depart="1140.00" from="1446454670" to="295408460#3" type="truck"/>
    <trip id="tk_96" depart="1152.00" from="1034028676#1" to="-118570147#0" type="truck"/>
    <trip id="tk_97" depart="1164.00" from="697200467#11" to="-641092773" type="truck"/>
    <trip id="tk_98" depart="1176.00" from="910359052#0" to="694737115#0" type="truck"/>
    <trip id="tk_99" depart="1188.00" from="696169688" to="673151142#4" type="truck"/>
    <trip id="tk_100" depart="1200.00" from="295128790#4" to="118573597" type="truck"/>
    <trip id="tk_101" depart="1212.00" from="295408463#1" to="295408465#1" type="truck"/>
    <trip id="tk_102" depart="1224.00" from="689583171#15" to="695030266" type="truck"/>
    <trip id="tk_103" depart="1236.00" from="694583900#0-AddedOffRampEdge" to="695490087#1" type="truck"/>
    <trip id="tk_104" depart="1248.00" from="642360965#3" to="-831070297#1" type="truck"/>
    <trip id="tk_105" depart="1260.00" from="408161670#25" to="676453138#2" type="truck"/>
    <trip id="tk_106" depart="1272.00" from="1280219265" to="295386152#4" type="truck"/>
    <trip id="tk_107" depart="1284.00" from="689583171#4" to="-828724810#0" type="truck"/>
    <trip id="tk_108" depart="1296.00" from="689583171#7" to="1280219260#1" type="truck"/>
    <trip id="tk_109" depart="1308.00" from="-35950959#1" to="697200467#9" type="truck"/>
    <trip id="tk_110" depart="1320.00" from="694830397" to="693885804#0" type="truck"/>
    <trip id="tk_111" depart="1332.00" from="295408463#0" to="295408461#0" type="truck"/>
    <trip id="tk_112" depart="1344.00" from="828678776" to="697200467#8" type="truck"/>
    <trip id="tk_113" depart="1356.00" from="697200467#1" to="295408463#1" type="truck"/>
    <trip id="tk_114" depart="1368.00" from="696168834#1" to="1280614485" type="truck"/>
    <trip id="tk_115" depart="1380.00" from="693111346#0" to="295408452#10" type="truck"/>
    <trip id="tk_116" depart="1392.00" from="1280614504#0" to="-321069049#2" type="truck"/>
    <trip id="tk_117" depart="1404.00" from="694598419#1-AddedOnRampEdge" to="118575975#5" type="truck"/>
    <trip id="tk_118" depart="1416.00" from="-321069035#6" to="-673151145#1" type="truck"/>
    <trip id="tk_119" depart="1428.00" from="-828724796" to="694775628#2" type="truck"/>
    <trip id="tk_120" depart="1440.00" from="698936203#8" to="693885803#1" type="truck"/>
    <trip id="tk_121" depart="1452.00" from="1280219261" to="295408459#5" type="truck"/>
    <trip id="tk_122" depart="1464.00" from="35950897#10" to="35950925#6" type="truck"/>
    <trip id="tk_123" depart="1476.00" from="295408459#0" to="295408452#7" type="truck"/>
    <trip id="tk_124" depart="1488.00" from="35950925#1" to="694775628#0" type="truck"/>
    <trip id="tk_125" depart="1500.00" from="676455250#1" to="160628085#1" type="truck"/>
    <trip id="tk_126" depart="1512.00" from="698936203#0" to="1034028675#2" type="truck"/>
    <trip id="tk_127" depart="1524.00" from="1280089201#0" to="695496039#2" type="truck"/>
    <trip id="tk_128" depart="1536.00" from="295408462#8" to="295408452#8" type="truck"/>
    <trip id="tk_129" depart="1548.00" from="1387292391" to="295408463#0" type="truck"/>
    <trip id="tk_130" depart="1560.00" from="1280089222" to="-561474244" type="truck"/>
    <trip id="tk_131" depart="1572.00" from="1282715056" to="-694715298" type="truck"/>
    <trip id="tk_132" depart="1584.00" from="695496039#2" to="35950882#9" type="truck"/>
    <trip id="tk_133" depart="1596.00" from="-39354228#4" to="343417844#0" type="truck"/>
    <trip id="tk_134" depart="1608.00" from="694601892" to="695030266" type="truck"/>
    <trip id="tk_135" depart="1620.00" from="-828724821#1" to="1355319663" type="truck"/>
    <trip id="tk_136" depart="1632.00" from="693885804#0" to="302751282" type="truck"/>
    <trip id="tk_137" depart="1644.00" from="-828724785" to="828678910" type="truck"/>
    <trip id="tk_138" depart="1656.00" from="295408463#1" to="118673921#2" type="truck"/>
    <trip id="tk_139" depart="1668.00" from="695295268" to="828724779#1" type="truck"/>
    <trip id="tk_140" depart="1680.00" from="118566873#2" to="35950868#26" type="truck"/>
    <trip id="tk_141" depart="1692.00" from="694774375#0" to="1034028677#1" type="truck"/>
    <trip id="tk_142" depart="1704.00" from="-828678859" to="302751282-AddedOnRampEdge" type="truck"/>
    <trip id="tk_143" depart="1716.00" from="295408460#2" to="295408461#9" type="truck"/>
    <trip id="tk_144" depart="1728.00" from="1034028675#2" to="694774375#0" type="truck"/>
    <trip id="tk_145" depart="1740.00" from="-35950959#11" to="1034028676#0" type="truck"/>
    <trip id="tk_146" depart="1752.00" from="295408452#16-AddedOffRampEdge" to="302751282-AddedOnRampEdge" type="truck"/>
    <trip id="tk_147" depart="1764.00" from="118570183#0" to="-372464933#2" type="truck"/>
    <trip id="tk_148" depart="1776.00" from="562701507#1" to="-372220804#0" type="truck"/>
    <trip id="tk_149" depart="1788.00" from="160628085#1" to="695510007#1" type="truck"/>
    <trip id="tk_150" depart="1800.00" from="295128790#4" to="344692547#0" type="truck"/>
    <trip id="tk_151" depart="1812.00" from="695025562#0" to="695040105#0" type="truck"/>
    <trip id="tk_152" depart="1824.00" from="1282340717#0" to="910359052#3" type="truck"/>
    <trip id="tk_153" depart="1836.00" from="295408452#1" to="689583171#7" type="truck"/>
    <trip id="tk_154" depart="1848.00" from="828724767#0" to="-300949144#1" type="truck"/>
    <trip id="tk_155" depart="1860.00" from="295449627#4" to="1034027336#1" type="truck"/>
    <trip id="tk_156" depart="1872.00" from="-295386152#11" to="-698067307#1" type="truck"/>
    <trip id="tk_157" depart="1884.00" from="-828678858" to="1282340717#1" type="truck"/>
    <trip id="tk_158" depart="1896.00" from="295408461#0" to="404709476" type="truck"/>
    <trip id="tk_159" depart="1908.00" from="295408462#10" to="828724748" type="truck"/>
    <trip id="tk_160" depart="1920.00" from="910359052#8" to="828678741#0" type="truck"/>
    <trip id="tk_161" depart="1932.00" from="695496039#2" to="693885804#0" type="truck"/>
    <trip id="tk_162" depart="1944.00" from="35950850#0" to="-372220804#1" type="truck"/>
    <trip id="tk_163" depart="1956.00" from="695040105#0" to="39368999#11" type="truck"/>
    <trip id="tk_164" depart="1968.00" from="694715298" to="828678814#6" type="truck"/>
    <trip id="tk_165" depart="1980.00" from="-828724816" to="295449625#0" type="truck"/>
    <trip id="tk_166" depart="1992.00" from="295408459#4" to="302751282-AddedOnRampEdge" type="truck"/>
    <trip id="tk_167" depart="2004.00" from="-676465939#0" to="295408462#10" type="truck"/>
    <trip id="tk_168" depart="2016.00" from="295408459#4" to="1280219258#0" type="truck"/>
    <trip id="tk_169" depart="2028.00" from="1280219261" to="910359052#8" type="truck"/>
    <trip id="tk_170" depart="2040.00" from="694598419#1-AddedOnRampEdge" to="295449627#5" type="truck"/>
    <trip id="tk_171" depart="2052.00" from="1280219257#0" to="1279915921" type="truck"/>
    <trip id="tk_172" depart="2064.00" from="694601892" to="695496039#3" type="truck"/>
    <trip id="tk_173" depart="2076.00" from="-118672299#0" to="964171425#4" type="truck"/>
    <trip id="tk_174" depart="2088.00" from="694830395#0" to="910359052#9" type="truck"/>
    <trip id="tk_175" depart="2100.00" from="-372589137#1" to="160628085#1" type="truck"/>
    <trip id="tk_176" depart="2112.00" from="35950897#10" to="693416427" type="truck"/>
    <trip id="tk_177" depart="2124.00" from="1280219259#0" to="35950925#9" type="truck"/>
    <trip id="tk_178" depart="2136.00" from="695295267#0" to="1034028677#1" type="truck"/>
    <trip id="tk_179" depart="2148.00" from="695496039#3" to="-372467078#4" type="truck"/>
    <trip id="tk_180" depart="2160.00" from="695025560#0" to="693885804#0" type="truck"/>
    <trip id="tk_181" depart="2172.00" from="295408462#12" to="1280219266" type="truck"/>
    <trip id="tk_182" depart="2184.00" from="-1279915898#3" to="35950868#9" type="truck"/>
    <trip id="tk_183" depart="2196.00" from="-828678817#1" to="694774375#0" type="truck"/>
    <trip id="tk_184" depart="2208.00" from="-641423230" to="-118570168#7" type="truck"/>
    <trip id="tk_185" depart="2220.00" from="693885804#0" to="118673929#3" type="truck"/>
    <trip id="tk_186" depart="2232.00" from="693885804#0" to="295408462#12" type="truck"/>
    <trip id="tk_187" depart="2244.00" from="35950864#23" to="408161670#24" type="truck"/>
    <trip id="tk_188" depart="2256.00" from="695504114#1" to="695030266" type="truck"/>
    <trip id="tk_189" depart="2268.00" from="697200467#8" to="1391330070#12" type="truck"/>
    <trip id="tk_190" depart="2280.00" from="694775628#2" to="695030266" type="truck"/>
    <trip id="tk_191" depart="2292.00" from="694598419#1" to="295408461#0" type="truck"/>
    <trip id="tk_192" depart="2304.00" from="693885802#0" to="910359052#3" type="truck"/>
    <trip id="tk_193" depart="2316.00" from="-828678837#0" to="35950942#2" type="truck"/>
    <trip id="tk_194" depart="2328.00" from="118672619#0" to="295408452#16-AddedOffRampEdge" type="truck"/>
    <trip id="tk_195" depart="2340.00" from="118570175" to="118570149#3" type="truck"/>
    <trip id="tk_196" depart="2352.00" from="-828678799" to="39354228#7" type="truck"/>
    <trip id="tk_197" depart="2364.00" from="1280089201#1" to="302737424#1" type="truck"/>
    <trip id="tk_198" depart="2376.00" from="295449625#0" to="828678792" type="truck"/>
    <trip id="tk_199" depart="2388.00" from="-118566872#1" to="1280089201#2" type="truck"/>
    <trip id="tk_200" depart="2400.00" from="118575972#0" to="199383481-AddedOnRampEdge" type="truck"/>
    <trip id="tk_201" depart="2412.00" from="694598419#1-AddedOnRampEdge" to="295408452#0" type="truck"/>
    <trip id="tk_202" depart="2424.00" from="910359052#0" to="295408460#2" type="truck"/>
    <trip id="tk_203" depart="2436.00" from="910359052#3" to="695025562#0" type="truck"/>
    <trip id="tk_204" depart="2448.00" from="372466118" to="695502611#1" type="truck"/>
    <trip id="tk_205" depart="2460.00" from="-694715298" to="295408465#1" type="truck"/>
    <trip id="tk_206" depart="2472.00" from="-1467236399" to="696168834#1" type="truck"/>
    <trip id="tk_207" depart="2484.00" from="118567886#0" to="372467085#0" type="truck"/>
    <trip id="tk_208" depart="2496.00" from="295408452#10" to="372464936" type="truck"/>
    <trip id="tk_209" depart="2508.00" from="-561913438#4" to="35950868#7" type="truck"/>
    <trip id="tk_210" depart="2520.00" from="295408468#4" to="-256672294" type="truck"/>
    <trip id="tk_211" depart="2532.00" from="-828678808" to="1280089201#2" type="truck"/>
    <trip id="tk_212" depart="2544.00" from="694774375#0" to="1280219265" type="truck"/>
    <trip id="tk_213" depart="2556.00" from="-641077473#0" to="910359052#7" type="truck"/>
    <trip id="tk_214" depart="2568.00" from="697200467#10" to="-828724756#1" type="truck"/>
    <trip id="tk_215" depart="2580.00" from="694583900#0-AddedOffRampEdge" to="-372220804#3" type="truck"/>
    <trip id="tk_216" depart="2592.00" from="694601892" to="295408461#10" type="truck"/>
    <trip id="tk_217" depart="2604.00" from="1280089201#1" to="35950864#22" type="truck"/>
    <trip id="tk_218" depart="2616.00" from="697200467#1" to="408161670#20" type="truck"/>
    <trip id="tk_219" depart="2628.00" from="-641077469" to="295408459#5" type="truck"/>
    <trip id="tk_220" depart="2640.00" from="1280614485" to="295408465#2-AddedOnRampEdge" type="truck"/>
    <trip id="tk_221" depart="2652.00" from="1282340717#0" to="160628085#0" type="truck"/>
    <trip id="tk_222" depart="2664.00" from="35950868#10" to="-696755556#0" type="truck"/>
    <trip id="tk_223" depart="2676.00" from="35950897#6" to="160628085#2" type="truck"/>
    <trip id="tk_224" depart="2688.00" from="1391330070#0" to="695496039#3" type="truck"/>
    <trip id="tk_225" depart="2700.00" from="408161670#20" to="693885804#0" type="truck"/>
    <trip id="tk_226" depart="2712.00" from="295408462#10" to="199383481-AddedOnRampEdge" type="truck"/>
    <trip id="tk_227" depart="2724.00" from="295408452#0" to="295408452#11" type="truck"/>
    <trip id="tk_228" depart="2736.00" from="-1355319664" to="118673921#0" type="truck"/>
    <trip id="tk_229" depart="2748.00" from="695496039#2" to="693416739#3" type="truck"/>
    <trip id="tk_230" depart="2760.00" from="295408462#12" to="-642098832#0" type="truck"/>
    <trip id="tk_231" depart="2772.00" from="1280089201#1" to="1280089222" type="truck"/>
    <trip id="tk_232" depart="2784.00" from="698046188#1" to="689583176#1" type="truck"/>
    <trip id="tk_233" depart="2796.00" from="1280219265" to="1034028675#6" type="truck"/>
    <trip id="tk_234" depart="2808.00" from="1280614485" to="695490086#1" type="truck"/>
    <trip id="tk_235" depart="2820.00" from="118673929#1" to="344692547#0" type="truck"/>
    <trip id="tk_236" depart="2832.00" from="694594970#0" to="1280614505#1" type="truck"/>
    <trip id="tk_237" depart="2844.00" from="295408452#8" to="408161670#20" type="truck"/>
    <trip id="tk_238" depart="2856.00" from="408161670#0" to="302751282" type="truck"/>
    <trip id="tk_239" depart="2868.00" from="693111346#0" to="295408465#1" type="truck"/>
    <trip id="tk_240" depart="2880.00" from="694830397" to="-676489596#1" type="truck"/>
    <trip id="tk_241" depart="2892.00" from="-561426521" to="-1279259377#0" type="truck"/>
    <trip id="tk_242" depart="2904.00" from="828678794#1" to="693885802#0" type="truck"/>
    <trip id="tk_243" depart="2916.00" from="697200467#8" to="118570175" type="truck"/>
    <trip id="tk_244" depart="2928.00" from="1280614504#0" to="698936203#4" type="truck"/>
    <trip id="tk_245" depart="2940.00" from="-118672606#9" to="-35950942#1" type="truck"/>
    <trip id="tk_246" depart="2952.00" from="1282340718" to="-372220804#34" type="truck"/>
    <trip id="tk_247" depart="2964.00" from="118673947#0" to="199383481" type="truck"/>
    <trip id="tk_248" depart="2976.00" from="695504114#1" to="695030266" type="truck"/>
    <trip id="tk_249" depart="2988.00" from="695496039#2" to="118672619#4" type="truck"/>
    <trip id="tk_250" depart="3000.00" from="-405962814" to="828724754#3" type="truck"/>
    <trip id="tk_251" depart="3012.00" from="1034028675#2" to="408161670#24" type="truck"/>
    <trip id="tk_252" depart="3024.00" from="1034028675#0" to="779462187#1" type="truck"/>
    <trip id="tk_253" depart="3036.00" from="302751284#3" to="676465938#0" type="truck"/>
    <trip id="tk_254" depart="3048.00" from="295408463#0" to="694598419#1-AddedOnRampEdge" type="truck"/>
    <trip id="tk_255" depart="3060.00" from="695040552#0" to="302751282" type="truck"/>
    <trip id="tk_256" depart="3072.00" from="-118555049#1" to="408161670#0" type="truck"/>
    <trip id="tk_257" depart="3084.00" from="695040105#5" to="-372220804#30" type="truck"/>
    <trip id="tk_258" depart="3096.00" from="-118570168#7" to="302751295#15" type="truck"/>
    <trip id="tk_259" depart="3108.00" from="562709015#4" to="118570160" type="truck"/>
    <trip id="tk_260" depart="3120.00" from="697200467#10" to="372466118" type="truck"/>
    <trip id="tk_261" depart="3132.00" from="695040105#3" to="295128790#4" type="truck"/>
    <trip id="tk_262" depart="3144.00" from="695496039#2" to="118672619#2" type="truck"/>
    <trip id="tk_263" depart="3156.00" from="1034028677#1" to="-828724715" type="truck"/>
    <trip id="tk_264" depart="3168.00" from="1282340737" to="199383481-AddedOnRampEdge" type="truck"/>
    <trip id="tk_265" depart="3180.00" from="1391330070#12" to="35950868#1" type="truck"/>
    <trip id="tk_266" depart="3192.00" from="160628085#0" to="1034028677#1" type="truck"/>
    <trip id="tk_267" depart="3204.00" from="1034028677#0" to="35950864#25" type="truck"/>
    <trip id="tk_268" depart="3216.00" from="118672619#2" to="295408461#7" type="truck"/>
    <trip id="tk_269" depart="3228.00" from="694830395#0" to="831070296" type="truck"/>
    <trip id="tk_270" depart="3240.00" from="-828678903" to="118673937#3" type="truck"/>
    <trip id="tk_271" depart="3252.00" from="408161670#0" to="-35950868#10" type="truck"/>
    <trip id="tk_272" depart="3264.00" from="295408464#0" to="295408460#3" type="truck"/>
    <trip id="tk_273" depart="3276.00" from="694830395#0" to="295408459#5" type="truck"/>
    <trip id="tk_274" depart="3288.00" from="1282340735" to="673151179#1" type="truck"/>
    <trip id="tk_275" depart="3300.00" from="321069061" to="295408462#8" type="truck"/>
    <trip id="tk_276" depart="3312.00" from="695496039#2" to="405113894" type="truck"/>
    <trip id="tk_277" depart="3324.00" from="695496039#2" to="1282340735" type="truck"/>
    <trip id="tk_278" depart="3336.00" from="1280089222" to="697200467#8" type="truck"/>
    <trip id="tk_279" depart="3348.00" from="-895499825" to="1280219257#0" type="truck"/>
    <trip id="tk_280" depart="3360.00" from="295449627#5" to="1418093030" type="truck"/>
    <trip id="tk_281" depart="3372.00" from="295408452#16" to="642486432" type="truck"/>
    <trip id="tk_282" depart="3384.00" from="694830396" to="-676465938#0" type="truck"/>
    <trip id="tk_283" depart="3396.00" from="372220804#1" to="-560329311" type="truck"/>
    <trip id="tk_284" depart="3408.00" from="302751284#3" to="-828724797#0" type="truck"/>
    <trip id="tk_285" depart="3420.00" from="-642098832#1" to="828678874#2" type="truck"/>
    <trip id="tk_286" depart="3432.00" from="-1387292390#4" to="1355319662" type="truck"/>
    <trip id="tk_287" depart="3444.00" from="-39354228#6" to="302751282" type="truck"/>
    <trip id="tk_288" depart="3456.00" from="1391330070#4" to="1280219260#1" type="truck"/>
    <trip id="tk_289" depart="3468.00" from="-828724768#0" to="695510007#1" type="truck"/>
    <trip id="tk_290" depart="3480.00" from="828724681" to="-828678799" type="truck"/>
    <trip id="tk_291" depart="3492.00" from="295408464#0-AddedOffRampEdge" to="1034028677#0" type="truck"/>
    <trip id="tk_292" depart="3504.00" from="160628085#2" to="295408463#1" type="truck"/>
    <trip id="tk_293" depart="3516.00" from="35950897#10" to="295408461#5" type="truck"/>
    <trip id="tk_294" depart="3528.00" from="1392384120#0" to="697200467#0" type="truck"/>
    <trip id="tk_295" depart="3540.00" from="694598419#1-AddedOnRampEdge" to="295408452#9" type="truck"/>
    <trip id="tk_296" depart="3552.00" from="-689583176#4" to="697200467#9" type="truck"/>
    <trip id="tk_297" depart="3564.00" from="295408462#1" to="295408452#16-AddedOffRampEdge" type="truck"/>
    <trip id="tk_298" depart="3576.00" from="695496042#0" to="694600787" type="truck"/>
    <trip id="tk_299" depart="3588.00" from="697200467#9" to="561667994#0" type="truck"/>
</routes>
