<?xml version="1.0" encoding="UTF-8"?>

<!-- generated on 2026-03-22 01:58:26.873424 by Eclipse SUMO randomTrips.py v1_26_0+0000-fa7df22d7f1
<configuration>
    <net-file value="D:\WeSaveTime-ASEAN\sumo\danang\danang.net.xml"/>
    <additional-files value="D:\WeSaveTime-ASEAN\sumo\danang\danang.vtypes.xml"/>
    <weights-prefix value="D:\WeSaveTime-ASEAN\sumo\danang\danang.weights"/>
    <output-trip-file value="D:\WeSaveTime-ASEAN\sumo\danang\danang.sv_.trips.xml"/>
    <prefix value="sv_"/>
    <trip-attributes value="type=&quot;car_suv&quot;"/>
    <fringe-factor value="5"/>
    <random value="True"/>
    <remove-loops value="True"/>
    <end value="600.0"/>
    <period value="7.5"/>
</configuration>
-->

<routes xmlns:xsi="http://www.w3.org/2001/XMLSchema-instance" xsi:noNamespaceSchemaLocation="http://sumo.dlr.de/xsd/routes_file.xsd">
    <trip id="sv_0" depart="0.00" from="-561913438#4" to="694768221#2" type="car_suv"/>
    <trip id="sv_1" depart="7.50" from="295408452#8" to="695295267#0" type="car_suv"/>
    <trip id="sv_2" depart="15.00" from="-321069049#2" to="643237807#0" type="car_suv"/>
    <trip id="sv_3" depart="22.50" from="295408462#8" to="-295386152#6" type="car_suv"/>
    <trip id="sv_4" depart="30.00" from="694530227#12" to="295128790#10" type="car_suv"/>
    <trip id="sv_5" depart="37.50" from="302739240#0" to="-371907294#3" type="car_suv"/>
    <trip id="sv_6" depart="45.00" from="160628085#1" to="689583171#12" type="car_suv"/>
    <trip id="sv_7" depart="52.50" from="35950864#3" to="300949143" type="car_suv"/>
    <trip id="sv_8" depart="60.00" from="295408452#16-AddedOffRampEdge" to="693416739#3" type="car_suv"/>
    <trip id="sv_9" depart="67.50" from="964171425#2" to="-372467085#1" type="car_suv"/>
    <trip id="sv_10" depart="75.00" from="703791942" to="-1282340733#0" type="car_suv"/>
    <trip id="sv_11" depart="82.50" from="694808615#0" to="-696991611#1" type="car_suv"/>
    <trip id="sv_12" depart="90.00" from="1471511793#2" to="321069043#0" type="car_suv"/>
    <trip id="sv_13" depart="97.50" from="689583171#22" to="-676491483#1" type="car_suv"/>
    <trip id="sv_14" depart="105.00" from="295408463#0" to="35950897#1" type="car_suv"/>
    <trip id="sv_15" depart="112.50" from="-1280089198#8" to="295449645" type="car_suv"/>
    <trip id="sv_16" depart="120.00" from="408161670#20" to="-118672444#3" type="car_suv"/>
    <trip id="sv_17" depart="127.50" from="-295408470#1" to="408161672#2" type="car_suv"/>
    <trip id="sv_18" depart="135.00" from="408161670#22" to="302751282-AddedOnRampEdge" type="car_suv"/>
    <trip id="sv_19" depart="142.50" from="-642050078#1" to="641073883#0" type="car_suv"/>
    <trip id="sv_20" depart="150.00" from="-118570169#1" to="1282715048#0" type="car_suv"/>
    <trip id="sv_21" depart="157.50" from="1391330070#0" to="1280219246" type="car_suv"/>
    <trip id="sv_22" depart="165.00" from="695446625#1" to="1280219258#0" type="car_suv"/>
    <trip id="sv_23" depart="172.50" from="408161670#27" to="1280219260#0" type="car_suv"/>
    <trip id="sv_24" depart="180.00" from="-828678819" to="118570168#6" type="car_suv"/>
    <trip id="sv_25" depart="187.50" from="295408462#8" to="698936203#11" type="car_suv"/>
    <trip id="sv_26" depart="195.00" from="1279880688#2" to="1279915921" type="car_suv"/>
    <trip id="sv_27" depart="202.50" from="-828724711#1" to="1279880688#5" type="car_suv"/>
    <trip id="sv_28" depart="210.00" from="-828724777#0" to="-676439266" type="car_suv"/>
    <trip id="sv_29" depart="217.50" from="910359052#7" to="-828724694#1" type="car_suv"/>
    <trip id="sv_30" depart="225.00" from="1034028677#0" to="1034028677#1" type="car_suv"/>
    <trip id="sv_31" depart="232.50" from="676491483#3" to="1282715048#0" type="car_suv"/>
    <trip id="sv_32" depart="240.00" from="830713109#1" to="717756679#1" type="car_suv"/>
    <trip id="sv_33" depart="247.50" from="35950897#10" to="408161670#25" type="car_suv"/>
    <trip id="sv_34" depart="255.00" from="624451499" to="910359052#3" type="car_suv"/>
    <trip id="sv_35" depart="262.50" from="295386151-AddedOffRampEdge" to="-828724763#0" type="car_suv"/>
    <trip id="sv_36" depart="270.00" from="694530227#1" to="-118674615#3" type="car_suv"/>
    <trip id="sv_37" depart="277.50" from="399595482#0" to="-35950883#8" type="car_suv"/>
    <trip id="sv_38" depart="285.00" from="-118672299#3" to="-694737115#0" type="car_suv"/>
    <trip id="sv_39" depart="292.50" from="-35950887" to="1076293830#0" type="car_suv"/>
    <trip id="sv_40" depart="300.00" from="695502613" to="295408461#10" type="car_suv"/>
    <trip id="sv_41" depart="307.50" from="118575975#5" to="698936203#7" type="car_suv"/>
    <trip id="sv_42" depart="315.00" from="295449625#0" to="399595482#8" type="car_suv"/>
    <trip id="sv_43" depart="322.50" from="295449627#4" to="695040552#1" type="car_suv"/>
    <trip id="sv_44" depart="330.00" from="-35950850#11" to="695025562#1" type="car_suv"/>
    <trip id="sv_45" depart="337.50" from="-39368999#16" to="-828678747" type="car_suv"/>
    <trip id="sv_46" depart="345.00" from="118570183#3" to="1034028676#1" type="car_suv"/>
    <trip id="sv_47" depart="352.50" from="118573606#4" to="295408477" type="car_suv"/>
    <trip id="sv_48" depart="360.00" from="-828678862#0" to="408161670#28" type="car_suv"/>
    <trip id="sv_49" depart="367.50" from="408161670#20" to="-689583178#4" type="car_suv"/>
    <trip id="sv_50" depart="375.00" from="295408466#0" to="118567894#2" type="car_suv"/>
    <trip id="sv_51" depart="382.50" from="694530227#2" to="1391330070#12" type="car_suv"/>
    <trip id="sv_52" depart="390.00" from="828724695" to="695502611#1" type="car_suv"/>
    <trip id="sv_53" depart="397.50" from="642098832#1" to="-642050078#1" type="car_suv"/>
    <trip id="sv_54" depart="405.00" from="35950925#2" to="295408452#10" type="car_suv"/>
    <trip id="sv_55" depart="412.50" from="-695040102#0" to="399595482#8" type="car_suv"/>
    <trip id="sv_56" depart="420.00" from="830713111#7" to="641423230" type="car_suv"/>
    <trip id="sv_57" depart="427.50" from="295408452#0" to="693885804#0" type="car_suv"/>
    <trip id="sv_58" depart="435.00" from="-372460851#1" to="408161672#3" type="car_suv"/>
    <trip id="sv_59" depart="442.50" from="1280089201#1" to="1279915900#0" type="car_suv"/>
    <trip id="sv_60" depart="450.00" from="703780448#0" to="295408452#6" type="car_suv"/>
    <trip id="sv_61" depart="457.50" from="695090346#2" to="408161670#28" type="car_suv"/>
    <trip id="sv_62" depart="465.00" from="698936203#6" to="-118672608#0" type="car_suv"/>
    <trip id="sv_63" depart="472.50" from="295449625#0" to="689583171#19" type="car_suv"/>
    <trip id="sv_64" depart="480.00" from="695496039#1" to="1280219260#1" type="car_suv"/>
    <trip id="sv_65" depart="487.50" from="302751295#15" to="372466120#0" type="car_suv"/>
    <trip id="sv_66" depart="495.00" from="1034028675#6" to="118672444#0" type="car_suv"/>
    <trip id="sv_67" depart="502.50" from="624455966" to="828724704" type="car_suv"/>
    <trip id="sv_68" depart="510.00" from="399626766#18" to="698936203#9" type="car_suv"/>
    <trip id="sv_69" depart="517.50" from="-561667996#2" to="642054365#1" type="car_suv"/>
    <trip id="sv_70" depart="525.00" from="1034028676#1" to="408161670#13" type="car_suv"/>
    <trip id="sv_71" depart="532.50" from="-828724760" to="779462187#0" type="car_suv"/>
    <trip id="sv_72" depart="540.00" from="642054374" to="964171425#0" type="car_suv"/>
    <trip id="sv_73" depart="547.50" from="689583163#4" to="35950897#0" type="car_suv"/>
    <trip id="sv_74" depart="555.00" from="1280219258#0" to="697200467#7" type="car_suv"/>
    <trip id="sv_75" depart="562.50" from="910359052#0" to="35950923#2" type="car_suv"/>
    <trip id="sv_76" depart="570.00" from="-828678788#1" to="1280219257#1" type="car_suv"/>
    <trip id="sv_77" depart="577.50" from="295408464#0-AddedOffRampEdge" to="695025562#1" type="car_suv"/>
    <trip id="sv_78" depart="585.00" from="118567494" to="-828678818" type="car_suv"/>
    <trip id="sv_79" depart="592.50" from="-676149873#3" to="35950868#3" type="car_suv"/>
</routes>
