<?xml version="1.0" encoding="UTF-8"?>

<!-- generated on 2026-03-19 15:47:52.458007 by Eclipse SUMO randomTrips.py v1_26_0+0000-fa7df22d7f1
<configuration>
    <net-file value="D:\WeSaveTime-ASEAN\sumo\danang\danang.net.xml"/>
    <additional-files value="D:\WeSaveTime-ASEAN\sumo\danang\danang.vtypes.xml"/>
    <weights-prefix value="D:\WeSaveTime-ASEAN\sumo\danang\danang.weights"/>
    <output-trip-file value="D:\WeSaveTime-ASEAN\sumo\danang\danang.sv_.trips.xml"/>
    <prefix value="sv_"/>
    <trip-attributes value="type=&quot;car_suv&quot;"/>
    <fringe-factor value="5"/>
    <random value="True"/>
    <remove-loops value="True"/>
    <end value="900.0"/>
    <period value="3.6"/>
</configuration>
-->

<routes xmlns:xsi="http://www.w3.org/2001/XMLSchema-instance" xsi:noNamespaceSchemaLocation="http://sumo.dlr.de/xsd/routes_file.xsd">
    <trip id="sv_0" depart="0.00" from="-828678874#0" to="828724767#0" type="car_suv"/>
    <trip id="sv_1" depart="3.60" from="964171425#4" to="302751295#32" type="car_suv"/>
    <trip id="sv_2" depart="7.20" from="689583171#7" to="-828724754#0" type="car_suv"/>
    <trip id="sv_3" depart="10.80" from="1165643361" to="-828678908" type="car_suv"/>
    <trip id="sv_4" depart="14.40" from="-828678857" to="-1467236399" type="car_suv"/>
    <trip id="sv_5" depart="18.00" from="295408452#9" to="694598419#1" type="car_suv"/>
    <trip id="sv_6" depart="21.60" from="676467950" to="693885803#27" type="car_suv"/>
    <trip id="sv_7" depart="25.20" from="673151142#3" to="695446625#3" type="car_suv"/>
    <trip id="sv_8" depart="28.80" from="-1255581684" to="828678859" type="car_suv"/>
    <trip id="sv_9" depart="32.40" from="642047428" to="910359052#5" type="car_suv"/>
    <trip id="sv_10" depart="36.00" from="160628085#1" to="372220804#1" type="car_suv"/>
    <trip id="sv_11" depart="39.60" from="-695446623#1" to="118570151#0" type="car_suv"/>
    <trip id="sv_12" depart="43.20" from="964171425#6" to="-118570167#0" type="car_suv"/>
    <trip id="sv_13" depart="46.80" from="695502613" to="160628085#0" type="car_suv"/>
    <trip id="sv_14" depart="50.40" from="-641109023#3" to="321069049#0" type="car_suv"/>
    <trip id="sv_15" depart="54.00" from="697200467#11" to="35950883#9" type="car_suv"/>
    <trip id="sv_16" depart="57.60" from="828678787#1" to="-302751295#14" type="car_suv"/>
    <trip id="sv_17" depart="61.20" from="694601892" to="295408452#11" type="car_suv"/>
    <trip id="sv_18" depart="64.80" from="118672299#2" to="-302751295#10" type="car_suv"/>
    <trip id="sv_19" depart="68.40" from="344692547#0" to="408161670#13" type="car_suv"/>
    <trip id="sv_20" depart="72.00" from="1280614485" to="695502611#1" type="car_suv"/>
    <trip id="sv_21" depart="75.60" from="695510007#1" to="405962812#1" type="car_suv"/>
    <trip id="sv_22" depart="79.20" from="35950882#1" to="693885804#0" type="car_suv"/>
    <trip id="sv_23" depart="82.80" from="1282340737" to="695295268" type="car_suv"/>
    <trip id="sv_24" depart="86.40" from="35950850#11" to="697200467#8" type="car_suv"/>
    <trip id="sv_25" depart="90.00" from="641397122#1" to="1280614505#1" type="car_suv"/>
    <trip id="sv_26" depart="93.60" from="693885802#0" to="695502611#0" type="car_suv"/>
    <trip id="sv_27" depart="97.20" from="295408452#16-AddedOffRampEdge" to="695502611#1" type="car_suv"/>
    <trip id="sv_28" depart="100.80" from="1280219265" to="695295267#2" type="car_suv"/>
    <trip id="sv_29" depart="104.40" from="295449645" to="695040105#0" type="car_suv"/>
    <trip id="sv_30" depart="108.00" from="-39368999#12" to="35950897#13" type="car_suv"/>
    <trip id="sv_31" depart="111.60" from="-118566872#6" to="295386152#8" type="car_suv"/>
    <trip id="sv_32" depart="115.20" from="118570159#14" to="695446625#3" type="car_suv"/>
    <trip id="sv_33" depart="118.80" from="695030266" to="695502611#0" type="car_suv"/>
    <trip id="sv_34" depart="122.40" from="160628085#1" to="694598419#1-AddedOnRampEdge" type="car_suv"/>
    <trip id="sv_35" depart="126.00" from="694772625#0" to="-35950864#7" type="car_suv"/>
    <trip id="sv_36" depart="129.60" from="694830396" to="1034028678" type="car_suv"/>
    <trip id="sv_37" depart="133.20" from="-295449645" to="697200467#4" type="car_suv"/>
    <trip id="sv_38" depart="136.80" from="39368999#9" to="695040105#5" type="car_suv"/>
    <trip id="sv_39" depart="140.40" from="694598419#1-AddedOnRampEdge" to="-35950868#10" type="car_suv"/>
    <trip id="sv_40" depart="144.00" from="1446429434#2" to="118570175" type="car_suv"/>
    <trip id="sv_41" depart="147.60" from="-372220804#12" to="295408452#16-AddedOffRampEdge" type="car_suv"/>
    <trip id="sv_42" depart="151.20" from="-35950864#30" to="-828724786" type="car_suv"/>
    <trip id="sv_43" depart="154.80" from="295408462#8" to="779462187#1" type="car_suv"/>
    <trip id="sv_44" depart="158.40" from="295408452#6" to="1280089201#0" type="car_suv"/>
    <trip id="sv_45" depart="162.00" from="408161670#18" to="-118573597" type="car_suv"/>
    <trip id="sv_46" depart="165.60" from="35950925#2" to="1387292390#0" type="car_suv"/>
    <trip id="sv_47" depart="169.20" from="408161670#24" to="118575972#3" type="car_suv"/>
    <trip id="sv_48" depart="172.80" from="695090346#1" to="-828678741#0" type="car_suv"/>
    <trip id="sv_49" depart="176.40" from="295408452#7" to="828724795#1" type="car_suv"/>
    <trip id="sv_50" depart="180.00" from="295408452#16-AddedOffRampEdge" to="295408465#1" type="car_suv"/>
    <trip id="sv_51" depart="183.60" from="118673929#0" to="295394152#1" type="car_suv"/>
    <trip id="sv_52" depart="187.20" from="695040105#5" to="-35950882#7" type="car_suv"/>
    <trip id="sv_53" depart="190.80" from="295408459#3" to="1279915900#2" type="car_suv"/>
    <trip id="sv_54" depart="194.40" from="302739240#0" to="693885804#0" type="car_suv"/>
    <trip id="sv_55" depart="198.00" from="295408460#3" to="695510007#1" type="car_suv"/>
    <trip id="sv_56" depart="201.60" from="-765351891#0" to="779462187#1" type="car_suv"/>
    <trip id="sv_57" depart="205.20" from="-828724703" to="697200467#8" type="car_suv"/>
    <trip id="sv_58" depart="208.80" from="695040552#0" to="693885804#0" type="car_suv"/>
    <trip id="sv_59" depart="212.40" from="295408452#16-AddedOffRampEdge" to="-1279915900#3" type="car_suv"/>
    <trip id="sv_60" depart="216.00" from="35950925#6" to="-118674615#1" type="car_suv"/>
    <trip id="sv_61" depart="219.60" from="295408452#5" to="779462187#1" type="car_suv"/>
    <trip id="sv_62" depart="223.20" from="694583900#0-AddedOffRampEdge" to="35950925#1" type="car_suv"/>
    <trip id="sv_63" depart="226.80" from="408161670#18" to="118566872#2" type="car_suv"/>
    <trip id="sv_64" depart="230.40" from="295408459#7" to="-118673892#1" type="car_suv"/>
    <trip id="sv_65" depart="234.00" from="693885803#27" to="689583171#7" type="car_suv"/>
    <trip id="sv_66" depart="237.60" from="295408462#8" to="295408463#1" type="car_suv"/>
    <trip id="sv_67" depart="241.20" from="302751284#0" to="39368999#6" type="car_suv"/>
    <trip id="sv_68" depart="244.80" from="1392384120#3" to="828678780" type="car_suv"/>
    <trip id="sv_69" depart="248.40" from="828724745" to="295408462#10" type="car_suv"/>
    <trip id="sv_70" depart="252.00" from="828678815" to="-643237807#1" type="car_suv"/>
    <trip id="sv_71" depart="255.60" from="695446625#3" to="-372467084#0" type="car_suv"/>
    <trip id="sv_72" depart="259.20" from="694598419#0" to="1280089222" type="car_suv"/>
    <trip id="sv_73" depart="262.80" from="695502611#1" to="302751295#3" type="car_suv"/>
    <trip id="sv_74" depart="266.40" from="1280219261" to="695025562#0" type="car_suv"/>
    <trip id="sv_75" depart="270.00" from="118555049#0" to="1280219259#1" type="car_suv"/>
    <trip id="sv_76" depart="273.60" from="695496039#3" to="1280219265" type="car_suv"/>
    <trip id="sv_77" depart="277.20" from="118570168#3" to="372466117#0" type="car_suv"/>
    <trip id="sv_78" depart="280.80" from="372466122#1" to="295408462#10" type="car_suv"/>
    <trip id="sv_79" depart="284.40" from="695510007#0" to="295408461#4" type="car_suv"/>
    <trip id="sv_80" depart="288.00" from="695504114#1" to="1418093030" type="car_suv"/>
    <trip id="sv_81" depart="291.60" from="-118570163#0" to="828678858" type="car_suv"/>
    <trip id="sv_82" depart="295.20" from="1210918872#1" to="-828678837#0" type="car_suv"/>
    <trip id="sv_83" depart="298.80" from="-39368999#0" to="408161670#13" type="car_suv"/>
    <trip id="sv_84" depart="302.40" from="295449627#4" to="35950897#10" type="car_suv"/>
    <trip id="sv_85" depart="306.00" from="910359052#0" to="160628085#2" type="car_suv"/>
    <trip id="sv_86" depart="309.60" from="693416427" to="295408452#16" type="car_suv"/>
    <trip id="sv_87" depart="313.20" from="-39368999#12" to="-118688839#3" type="car_suv"/>
    <trip id="sv_88" depart="316.80" from="405962815#0" to="-39368999#1" type="car_suv"/>
    <trip id="sv_89" depart="320.40" from="694594970#0" to="-118688839#0" type="car_suv"/>
    <trip id="sv_90" depart="324.00" from="695496039#3" to="295449629#0" type="car_suv"/>
    <trip id="sv_91" depart="327.60" from="-1279915898#9" to="302751282-AddedOnRampEdge" type="car_suv"/>
    <trip id="sv_92" depart="331.20" from="-562701508" to="-39368999#20" type="car_suv"/>
    <trip id="sv_93" depart="334.80" from="295408452#5" to="695030266" type="car_suv"/>
    <trip id="sv_94" depart="338.40" from="408161670#25" to="695040105#5" type="car_suv"/>
    <trip id="sv_95" depart="342.00" from="35950925#6" to="779462187#1" type="car_suv"/>
    <trip id="sv_96" depart="345.60" from="-828724768#1" to="-256672293" type="car_suv"/>
    <trip id="sv_97" depart="349.20" from="695496039#3" to="694775628#2" type="car_suv"/>
    <trip id="sv_98" depart="352.80" from="693416739#3" to="295408465#1" type="car_suv"/>
    <trip id="sv_99" depart="356.40" from="295408459#1" to="295408463#0" type="car_suv"/>
    <trip id="sv_100" depart="360.00" from="118570175" to="695544822" type="car_suv"/>
    <trip id="sv_101" depart="363.60" from="295408462#10" to="695025562#0" type="car_suv"/>
    <trip id="sv_102" depart="367.20" from="694772625#0" to="828724731" type="car_suv"/>
    <trip id="sv_103" depart="370.80" from="372220804#23" to="1282340739" type="car_suv"/>
    <trip id="sv_104" depart="374.40" from="-118555049#17" to="1280089222" type="car_suv"/>
    <trip id="sv_105" depart="378.00" from="693885804#0" to="676489596#1" type="car_suv"/>
    <trip id="sv_106" depart="381.60" from="408161670#13" to="-562701498" type="car_suv"/>
    <trip id="sv_107" depart="385.20" from="1282340735" to="-828724697#1" type="car_suv"/>
    <trip id="sv_108" depart="388.80" from="-372220804#3" to="695040552#1" type="car_suv"/>
    <trip id="sv_109" depart="392.40" from="695496039#2" to="-828678871" type="car_suv"/>
    <trip id="sv_110" depart="396.00" from="-39368999#12" to="118673944#4" type="car_suv"/>
    <trip id="sv_111" depart="399.60" from="694583900#0-AddedOffRampEdge" to="295408452#16-AddedOffRampEdge" type="car_suv"/>
    <trip id="sv_112" depart="403.20" from="676438753#1" to="828724700#1" type="car_suv"/>
    <trip id="sv_113" depart="406.80" from="295408461#4" to="1165643358" type="car_suv"/>
    <trip id="sv_114" depart="410.40" from="689583171#4" to="643237805" type="car_suv"/>
    <trip id="sv_115" depart="414.00" from="-828678874#2" to="1280614485" type="car_suv"/>
    <trip id="sv_116" depart="417.60" from="118566872#8" to="1280089201#1" type="car_suv"/>
    <trip id="sv_117" depart="421.20" from="695040105#0" to="35950882#1" type="car_suv"/>
    <trip id="sv_118" depart="424.80" from="1280219259#0" to="828678800" type="car_suv"/>
    <trip id="sv_119" depart="428.40" from="-828678903" to="118573597" type="car_suv"/>
    <trip id="sv_120" depart="432.00" from="35950897#13" to="1418093030" type="car_suv"/>
    <trip id="sv_121" depart="435.60" from="405962812#0" to="694774375#0" type="car_suv"/>
    <trip id="sv_122" depart="439.20" from="910359052#7" to="295408459#5" type="car_suv"/>
    <trip id="sv_123" depart="442.80" from="694583900#0-AddedOffRampEdge" to="295408468#4" type="car_suv"/>
    <trip id="sv_124" depart="446.40" from="698067307#1" to="964171425#4" type="car_suv"/>
    <trip id="sv_125" depart="450.00" from="295408463#0" to="302751295#12" type="car_suv"/>
    <trip id="sv_126" depart="453.60" from="-698053103" to="295449625#0" type="car_suv"/>
    <trip id="sv_127" depart="457.20" from="695446625#3" to="964171425#4" type="car_suv"/>
    <trip id="sv_128" depart="460.80" from="695496039#2" to="1391330070#12" type="car_suv"/>
    <trip id="sv_129" depart="464.40" from="-561913438#0" to="1280614505#1" type="car_suv"/>
    <trip id="sv_130" depart="468.00" from="-39368999#9" to="300949144#1" type="car_suv"/>
    <trip id="sv_131" depart="471.60" from="828724747#2" to="1034028676#2" type="car_suv"/>
    <trip id="sv_132" depart="475.20" from="118672608#1" to="373009311#2" type="car_suv"/>
    <trip id="sv_133" depart="478.80" from="-373009311#2" to="1282340752" type="car_suv"/>
    <trip id="sv_134" depart="482.40" from="295408461#0" to="1280219266" type="car_suv"/>
    <trip id="sv_135" depart="486.00" from="160628085#0" to="694600787" type="car_suv"/>
    <trip id="sv_136" depart="489.60" from="1034028676#1" to="698936203#4" type="car_suv"/>
    <trip id="sv_137" depart="493.20" from="295408452#16-AddedOffRampEdge" to="779462187#1" type="car_suv"/>
    <trip id="sv_138" depart="496.80" from="694202154#0" to="408161670#13" type="car_suv"/>
    <trip id="sv_139" depart="500.40" from="695025562#0" to="694598419#1" type="car_suv"/>
    <trip id="sv_140" depart="504.00" from="-35950864#27" to="118672606#8" type="car_suv"/>
    <trip id="sv_141" depart="507.60" from="-828724821#1" to="-642475789" type="car_suv"/>
    <trip id="sv_142" depart="511.20" from="693416427" to="295408463#0" type="car_suv"/>
    <trip id="sv_143" depart="514.80" from="697200467#0" to="199383481-AddedOnRampEdge" type="car_suv"/>
    <trip id="sv_144" depart="518.40" from="1280089201#2" to="695502611#0" type="car_suv"/>
    <trip id="sv_145" depart="522.00" from="696168834#0" to="118570168#9" type="car_suv"/>
    <trip id="sv_146" depart="525.60" from="1282340717#0" to="-118555049#4" type="car_suv"/>
    <trip id="sv_147" depart="529.20" from="295408464#0-AddedOffRampEdge" to="698046188#1" type="car_suv"/>
    <trip id="sv_148" depart="532.80" from="694598419#1-AddedOnRampEdge" to="-302751295#14" type="car_suv"/>
    <trip id="sv_149" depart="536.40" from="828678873" to="641397122#1" type="car_suv"/>
    <trip id="sv_150" depart="540.00" from="1280219260#0" to="1034028676#1" type="car_suv"/>
    <trip id="sv_151" depart="543.60" from="-673151145#0" to="695490087#1" type="car_suv"/>
    <trip id="sv_152" depart="547.20" from="39354228#1" to="694598419#1" type="car_suv"/>
    <trip id="sv_153" depart="550.80" from="1034028677#0" to="695040552#1" type="car_suv"/>
    <trip id="sv_154" depart="554.40" from="693885802#2" to="-828724742" type="car_suv"/>
    <trip id="sv_155" depart="558.00" from="694583900#0" to="118673921#2" type="car_suv"/>
    <trip id="sv_156" depart="561.60" from="408161670#24" to="1279915896#0" type="car_suv"/>
    <trip id="sv_157" depart="565.20" from="694598419#1" to="118673886#0" type="car_suv"/>
    <trip id="sv_158" depart="568.80" from="35950897#10" to="-118567889" type="car_suv"/>
    <trip id="sv_159" depart="572.40" from="295449627#5" to="295408462#12" type="car_suv"/>
    <trip id="sv_160" depart="576.00" from="693885803#17" to="1282340716" type="car_suv"/>
    <trip id="sv_161" depart="579.60" from="695025562#0" to="199383481-AddedOnRampEdge" type="car_suv"/>
    <trip id="sv_162" depart="583.20" from="964171425#4" to="118570175" type="car_suv"/>
    <trip id="sv_163" depart="586.80" from="698046188#1" to="697200467#4" type="car_suv"/>
    <trip id="sv_164" depart="590.40" from="-118566873#0" to="408161672#0" type="car_suv"/>
    <trip id="sv_165" depart="594.00" from="408161670#22" to="1280089201#1" type="car_suv"/>
    <trip id="sv_166" depart="597.60" from="-695040102#0" to="-828678912#0" type="car_suv"/>
    <trip id="sv_167" depart="601.20" from="694830395#0" to="295408452#16-AddedOffRampEdge" type="car_suv"/>
    <trip id="sv_168" depart="604.80" from="35950959#5" to="295408468#4" type="car_suv"/>
    <trip id="sv_169" depart="608.40" from="695502611#0" to="-828678817#3" type="car_suv"/>
    <trip id="sv_170" depart="612.00" from="295408463#1" to="697200467#10" type="car_suv"/>
    <trip id="sv_171" depart="615.60" from="1280219266" to="562701506#1" type="car_suv"/>
    <trip id="sv_172" depart="619.20" from="302751284#3" to="693885802#0" type="car_suv"/>
    <trip id="sv_173" depart="622.80" from="295408460#3" to="-641109023#3" type="car_suv"/>
    <trip id="sv_174" depart="626.40" from="39368999#3" to="295408461#7" type="car_suv"/>
    <trip id="sv_175" depart="630.00" from="695496039#2" to="1346339141#0" type="car_suv"/>
    <trip id="sv_176" depart="633.60" from="1255578181" to="1391330071" type="car_suv"/>
    <trip id="sv_177" depart="637.20" from="693416739#0" to="695040105#3" type="car_suv"/>
    <trip id="sv_178" depart="640.80" from="695295265#0" to="295408465#2-AddedOnRampEdge" type="car_suv"/>
    <trip id="sv_179" depart="644.40" from="118575975#6" to="697200467#1" type="car_suv"/>
    <trip id="sv_180" depart="648.00" from="697869050#0" to="295408452#16-AddedOffRampEdge" type="car_suv"/>
    <trip id="sv_181" depart="651.60" from="696168834#1" to="-828678810#4" type="car_suv"/>
    <trip id="sv_182" depart="655.20" from="1446472838" to="39368999#4" type="car_suv"/>
    <trip id="sv_183" depart="658.80" from="295408459#4" to="1280614485" type="car_suv"/>
    <trip id="sv_184" depart="662.40" from="641093018" to="695025562#0" type="car_suv"/>
    <trip id="sv_185" depart="666.00" from="372464931#4" to="295408452#16" type="car_suv"/>
    <trip id="sv_186" depart="669.60" from="693885804#0" to="408161670#24" type="car_suv"/>
    <trip id="sv_187" depart="673.20" from="695295268" to="695040552#1" type="car_suv"/>
    <trip id="sv_188" depart="676.80" from="964171425#4" to="694775628#0" type="car_suv"/>
    <trip id="sv_189" depart="680.40" from="1282340736" to="372466117#0" type="car_suv"/>
    <trip id="sv_190" depart="684.00" from="-828724722" to="1280219257#0" type="car_suv"/>
    <trip id="sv_191" depart="687.60" from="828678901" to="118570149#1" type="car_suv"/>
    <trip id="sv_192" depart="691.20" from="695502614" to="-118673919#0" type="car_suv"/>
    <trip id="sv_193" depart="694.80" from="828724754#2" to="-676465939#0" type="car_suv"/>
    <trip id="sv_194" depart="698.40" from="1034028675#2" to="-302751295#12" type="car_suv"/>
    <trip id="sv_195" depart="702.00" from="895430059" to="-828724768#4" type="car_suv"/>
    <trip id="sv_196" depart="705.60" from="895449538" to="1280219261" type="car_suv"/>
    <trip id="sv_197" depart="709.20" from="1280614485" to="695504114#1" type="car_suv"/>
    <trip id="sv_198" depart="712.80" from="695510007#0" to="295408459#7" type="car_suv"/>
    <trip id="sv_199" depart="716.40" from="118575975#4" to="-321069038#1" type="car_suv"/>
    <trip id="sv_200" depart="720.00" from="295408459#1" to="408161670#13" type="car_suv"/>
    <trip id="sv_201" depart="723.60" from="118575965" to="779462187#1" type="car_suv"/>
    <trip id="sv_202" depart="727.20" from="295408463#0" to="295449625#1" type="car_suv"/>
    <trip id="sv_203" depart="730.80" from="1034028675#6" to="-694715297" type="car_suv"/>
    <trip id="sv_204" depart="734.40" from="295408468#4" to="694600787" type="car_suv"/>
    <trip id="sv_205" depart="738.00" from="694775628#2" to="1034028675#6" type="car_suv"/>
    <trip id="sv_206" depart="741.60" from="295449625#1" to="295449625#0" type="car_suv"/>
    <trip id="sv_207" depart="745.20" from="695295265#0" to="-828678860#0" type="car_suv"/>
    <trip id="sv_208" depart="748.80" from="693111346#0" to="35950925#3" type="car_suv"/>
    <trip id="sv_209" depart="752.40" from="1280219266" to="-118566872#7" type="car_suv"/>
    <trip id="sv_210" depart="756.00" from="1076293830#1" to="295394152#1" type="car_suv"/>
    <trip id="sv_211" depart="759.60" from="160628085#0" to="695054805#1" type="car_suv"/>
    <trip id="sv_212" depart="763.20" from="695510007#0" to="295408461#10" type="car_suv"/>
    <trip id="sv_213" depart="766.80" from="-695544823" to="-642098832#0" type="car_suv"/>
    <trip id="sv_214" depart="770.40" from="1034028676#1" to="779462187#1" type="car_suv"/>
    <trip id="sv_215" depart="774.00" from="694583900#0" to="1279915900#0" type="car_suv"/>
    <trip id="sv_216" depart="777.60" from="295408463#0" to="828678874#1" type="car_suv"/>
    <trip id="sv_217" depart="781.20" from="695490087#1" to="-676494208" type="car_suv"/>
    <trip id="sv_218" depart="784.80" from="693885804#0" to="-118570149#5" type="car_suv"/>
    <trip id="sv_219" depart="788.40" from="695446625#3" to="562709015#4" type="car_suv"/>
    <trip id="sv_220" depart="792.00" from="405962813" to="199383481" type="car_suv"/>
    <trip id="sv_221" depart="795.60" from="-372467085#1" to="295408462#10" type="car_suv"/>
    <trip id="sv_222" depart="799.20" from="-641397118" to="1282340735" type="car_suv"/>
    <trip id="sv_223" depart="802.80" from="-828678831" to="-118570151#1" type="car_suv"/>
    <trip id="sv_224" depart="806.40" from="295408459#1" to="1280219260#1" type="car_suv"/>
    <trip id="sv_225" depart="810.00" from="-118567892" to="694601892" type="car_suv"/>
    <trip id="sv_226" depart="813.60" from="696168834#0" to="295408462#0" type="car_suv"/>
    <trip id="sv_227" depart="817.20" from="-694715297" to="-372464937#4" type="car_suv"/>
    <trip id="sv_228" depart="820.80" from="828678877" to="828678801#1" type="car_suv"/>
    <trip id="sv_229" depart="824.40" from="295408468#0" to="1034028677#1" type="car_suv"/>
    <trip id="sv_230" depart="828.00" from="1034028676#0" to="694775628#2" type="car_suv"/>
    <trip id="sv_231" depart="831.60" from="964171425#0" to="1034028675#6" type="car_suv"/>
    <trip id="sv_232" depart="835.20" from="-372220804#0" to="1280089201#2" type="car_suv"/>
    <trip id="sv_233" depart="838.80" from="-39368999#12" to="35950868#21" type="car_suv"/>
    <trip id="sv_234" depart="842.40" from="-39368999#13" to="118566872#1" type="car_suv"/>
    <trip id="sv_235" depart="846.00" from="676453140#3" to="295408452#7" type="car_suv"/>
    <trip id="sv_236" depart="849.60" from="695496042#0" to="698046188#1" type="car_suv"/>
    <trip id="sv_237" depart="853.20" from="372220804#16" to="695544822" type="car_suv"/>
    <trip id="sv_238" depart="856.80" from="693885804#0" to="1034028675#0" type="car_suv"/>
    <trip id="sv_239" depart="860.40" from="1210918872#1" to="199383481-AddedOnRampEdge" type="car_suv"/>
    <trip id="sv_240" depart="864.00" from="1280219259#0" to="689583171#11" type="car_suv"/>
    <trip id="sv_241" depart="867.60" from="295449625#0" to="295408452#5" type="car_suv"/>
    <trip id="sv_242" depart="871.20" from="828678862#2" to="1034028677#1" type="car_suv"/>
    <trip id="sv_243" depart="874.80" from="35950850#0" to="695496039#3" type="car_suv"/>
    <trip id="sv_244" depart="878.40" from="-828678867" to="295408462#12" type="car_suv"/>
    <trip id="sv_245" depart="882.00" from="295408463#1" to="-118672633#0" type="car_suv"/>
    <trip id="sv_246" depart="885.60" from="1280219266" to="1210918873#1" type="car_suv"/>
    <trip id="sv_247" depart="889.20" from="-1467236399" to="697200467#9" type="car_suv"/>
    <trip id="sv_248" depart="892.80" from="35950897#0" to="1279915921" type="car_suv"/>
    <trip id="sv_249" depart="896.40" from="695504114#4" to="1034028676#2" type="car_suv"/>
</routes>
