<?xml version="1.0" encoding="UTF-8"?>

<!-- generated on 2026-03-19 15:47:49.556673 by Eclipse SUMO randomTrips.py v1_26_0+0000-fa7df22d7f1
<configuration>
    <net-file value="D:\WeSaveTime-ASEAN\sumo\danang\danang.net.xml"/>
    <additional-files value="D:\WeSaveTime-ASEAN\sumo\danang\danang.vtypes.xml"/>
    <weights-prefix value="D:\WeSaveTime-ASEAN\sumo\danang\danang.weights"/>
    <output-trip-file value="D:\WeSaveTime-ASEAN\sumo\danang\danang.ca_.trips.xml"/>
    <prefix value="ca_"/>
    <trip-attributes value="type=&quot;car&quot;"/>
    <fringe-factor value="5"/>
    <random value="True"/>
    <remove-loops value="True"/>
    <end value="900.0"/>
    <period value="1.5"/>
</configuration>
-->

<routes xmlns:xsi="http://www.w3.org/2001/XMLSchema-instance" xsi:noNamespaceSchemaLocation="http://sumo.dlr.de/xsd/routes_file.xsd">
    <trip id="ca_0" depart="0.00" from="372467090#0" to="295408452#8" type="car"/>
    <trip id="ca_1" depart="1.50" from="35950882#3" to="118672444#0" type="car"/>
    <trip id="ca_2" depart="3.00" from="1280219265" to="1280219261" type="car"/>
    <trip id="ca_3" depart="4.50" from="35950897#0" to="696168834#0" type="car"/>
    <trip id="ca_4" depart="6.00" from="698936203#7" to="1280219260#0" type="car"/>
    <trip id="ca_5" depart="7.50" from="694830397" to="160628085#2" type="car"/>
    <trip id="ca_6" depart="9.00" from="1034028677#0" to="1279915919" type="car"/>
    <trip id="ca_7" depart="10.50" from="1280089201#0" to="696169688" type="car"/>
    <trip id="ca_8" depart="12.00" from="-641397124" to="118566873#2" type="car"/>
    <trip id="ca_9" depart="13.50" from="1279915919" to="160628085#0" type="car"/>
    <trip id="ca_10" depart="15.00" from="-697870570" to="-828678877" type="car"/>
    <trip id="ca_11" depart="16.50" from="1282340731" to="295408452#16-AddedOffRampEdge" type="car"/>
    <trip id="ca_12" depart="18.00" from="676453139#1" to="828724770" type="car"/>
    <trip id="ca_13" depart="19.50" from="295408460#3" to="160628085#0" type="car"/>
    <trip id="ca_14" depart="21.00" from="372220804#1" to="641397122#4" type="car"/>
    <trip id="ca_15" depart="22.50" from="35950897#15" to="35950868#30" type="car"/>
    <trip id="ca_16" depart="24.00" from="695040552#0" to="295449627#0" type="car"/>
    <trip id="ca_17" depart="25.50" from="1279915921" to="696169688" type="car"/>
    <trip id="ca_18" depart="27.00" from="-676438752#0" to="695510007#1" type="car"/>
    <trip id="ca_19" depart="28.50" from="295408465#2-AddedOnRampEdge" to="295408465#2-AddedOnRampEdge" type="car"/>
    <trip id="ca_20" depart="30.00" from="694601892" to="1034028676#0" type="car"/>
    <trip id="ca_21" depart="31.50" from="-828724749#0" to="302751295#12" type="car"/>
    <trip id="ca_22" depart="33.00" from="408161670#18" to="779462187#1" type="car"/>
    <trip id="ca_23" depart="34.50" from="689583171#0" to="1446454670" type="car"/>
    <trip id="ca_24" depart="36.00" from="1282340735" to="695025562#0" type="car"/>
    <trip id="ca_25" depart="37.50" from="35950925#3" to="694601892" type="car"/>
    <trip id="ca_26" depart="39.00" from="695040105#0" to="295408461#7" type="car"/>
    <trip id="ca_27" depart="40.50" from="694775628#0" to="695510007#1" type="car"/>
    <trip id="ca_28" depart="42.00" from="695496039#3" to="697200467#0" type="car"/>
    <trip id="ca_29" depart="43.50" from="295449627#4" to="697200467#11" type="car"/>
    <trip id="ca_30" depart="45.00" from="118570168#2" to="1282340739" type="car"/>
    <trip id="ca_31" depart="46.50" from="-35950864#5" to="695502613" type="car"/>
    <trip id="ca_32" depart="48.00" from="-372466120#0" to="295408460#3" type="car"/>
    <trip id="ca_33" depart="49.50" from="694830396" to="694594970#0" type="car"/>
    <trip id="ca_34" depart="51.00" from="295408459#4" to="-405962812#0" type="car"/>
    <trip id="ca_35" depart="52.50" from="-118673921#3" to="-642356081#1" type="car"/>
    <trip id="ca_36" depart="54.00" from="694598419#1" to="694598419#0" type="car"/>
    <trip id="ca_37" depart="55.50" from="118570178#1" to="698936203#7" type="car"/>
    <trip id="ca_38" depart="57.00" from="-676453142#0" to="695040105#0" type="car"/>
    <trip id="ca_39" depart="58.50" from="295408463#0" to="295449625#0" type="car"/>
    <trip id="ca_40" depart="60.00" from="295408463#0" to="1280614505#1" type="car"/>
    <trip id="ca_41" depart="61.50" from="295408462#0" to="372220804#19" type="car"/>
    <trip id="ca_42" depart="63.00" from="35950897#15" to="408161670#27" type="car"/>
    <trip id="ca_43" depart="64.50" from="-1279915900#3" to="694598419#1" type="car"/>
    <trip id="ca_44" depart="66.00" from="1280089201#2" to="302751282-AddedOnRampEdge" type="car"/>
    <trip id="ca_45" depart="67.50" from="694598419#1-AddedOnRampEdge" to="964171425#6" type="car"/>
    <trip id="ca_46" depart="69.00" from="302751284#3" to="1280219260#1" type="car"/>
    <trip id="ca_47" depart="70.50" from="828678798#0" to="-562701507#1" type="car"/>
    <trip id="ca_48" depart="72.00" from="910359052#3" to="321069035#6" type="car"/>
    <trip id="ca_49" depart="73.50" from="694830396" to="698936203#8" type="car"/>
    <trip id="ca_50" depart="75.00" from="1391330070#4" to="295408452#0" type="car"/>
    <trip id="ca_51" depart="76.50" from="698936203#3" to="295408452#0" type="car"/>
    <trip id="ca_52" depart="78.00" from="295408461#0" to="1034027336#1" type="car"/>
    <trip id="ca_53" depart="79.50" from="-372464931#1" to="295408459#7" type="car"/>
    <trip id="ca_54" depart="81.00" from="828724767#0" to="-343236557#0" type="car"/>
    <trip id="ca_55" depart="82.50" from="695504114#4" to="689583171#10" type="car"/>
    <trip id="ca_56" depart="84.00" from="-828724761" to="295408452#16-AddedOffRampEdge" type="car"/>
    <trip id="ca_57" depart="85.50" from="-35950942#1" to="694598419#0" type="car"/>
    <trip id="ca_58" depart="87.00" from="-1346339141#0" to="35950897#15" type="car"/>
    <trip id="ca_59" depart="88.50" from="695025562#0" to="695502611#0" type="car"/>
    <trip id="ca_60" depart="90.00" from="-302751286#2" to="-976025288#0" type="car"/>
    <trip id="ca_61" depart="91.50" from="694830395#0" to="1280089201#0" type="car"/>
    <trip id="ca_62" depart="93.00" from="910359052#3" to="695025562#0" type="car"/>
    <trip id="ca_63" depart="94.50" from="-828678861" to="689583171#12" type="car"/>
    <trip id="ca_64" depart="96.00" from="1282340772" to="408161670#25" type="car"/>
    <trip id="ca_65" depart="97.50" from="1280219259#1" to="695040105#3" type="car"/>
    <trip id="ca_66" depart="99.00" from="408161670#18" to="1280219261" type="car"/>
    <trip id="ca_67" depart="100.50" from="372220804#29" to="695496042#0" type="car"/>
    <trip id="ca_68" depart="102.00" from="-35950868#21" to="295449625#1" type="car"/>
    <trip id="ca_69" depart="103.50" from="-642360965#0" to="295408459#7" type="car"/>
    <trip id="ca_70" depart="105.00" from="694598419#0" to="302751286#2" type="car"/>
    <trip id="ca_71" depart="106.50" from="1280219257#0" to="694598419#0" type="car"/>
    <trip id="ca_72" depart="108.00" from="1280614504#0" to="295408470#1" type="car"/>
    <trip id="ca_73" depart="109.50" from="1034027336#0" to="696168834#1" type="car"/>
    <trip id="ca_74" depart="111.00" from="694598419#0" to="1282340735" type="car"/>
    <trip id="ca_75" depart="112.50" from="160628085#2" to="-895447147" type="car"/>
    <trip id="ca_76" depart="114.00" from="-828724770" to="693885803#17" type="car"/>
    <trip id="ca_77" depart="115.50" from="39368999#2" to="695496039#3" type="car"/>
    <trip id="ca_78" depart="117.00" from="-118688839#6" to="695040105#5" type="car"/>
    <trip id="ca_79" depart="118.50" from="694601892" to="828724754#0" type="car"/>
    <trip id="ca_80" depart="120.00" from="-118672608#0" to="1280089201#2" type="car"/>
    <trip id="ca_81" depart="121.50" from="694830397" to="302737424#0" type="car"/>
    <trip id="ca_82" depart="123.00" from="-828724705#1" to="828678846" type="car"/>
    <trip id="ca_83" depart="124.50" from="695496039#2" to="676465939#0" type="car"/>
    <trip id="ca_84" depart="126.00" from="695446625#1" to="408161670#25" type="car"/>
    <trip id="ca_85" depart="127.50" from="694774375#0" to="-118673944#2" type="car"/>
    <trip id="ca_86" depart="129.00" from="695496042#0" to="-35950868#20" type="car"/>
    <trip id="ca_87" depart="130.50" from="295408459#4" to="-695446623#1" type="car"/>
    <trip id="ca_88" depart="132.00" from="1280614485" to="695295268" type="car"/>
    <trip id="ca_89" depart="133.50" from="-696715602" to="1280219258#0" type="car"/>
    <trip id="ca_90" depart="135.00" from="694601892" to="295449625#1" type="car"/>
    <trip id="ca_91" depart="136.50" from="295408452#16-AddedOffRampEdge" to="295408462#10" type="car"/>
    <trip id="ca_92" depart="138.00" from="695295265#0" to="408161670#18" type="car"/>
    <trip id="ca_93" depart="139.50" from="693416739#0" to="405962814" type="car"/>
    <trip id="ca_94" depart="141.00" from="695502611#0" to="295408452#8" type="car"/>
    <trip id="ca_95" depart="142.50" from="-372220804#16" to="-641397118" type="car"/>
    <trip id="ca_96" depart="144.00" from="-35950864#23" to="405113896#0" type="car"/>
    <trip id="ca_97" depart="145.50" from="642353277" to="-118575975#0" type="car"/>
    <trip id="ca_98" depart="147.00" from="295408459#0" to="663749305" type="car"/>
    <trip id="ca_99" depart="148.50" from="828678773#2" to="199383481-AddedOnRampEdge" type="car"/>
    <trip id="ca_100" depart="150.00" from="695504114#0" to="160628085#1" type="car"/>
    <trip id="ca_101" depart="151.50" from="-118672607#5" to="695504114#0" type="car"/>
    <trip id="ca_102" depart="153.00" from="295408452#16" to="35950897#13" type="car"/>
    <trip id="ca_103" depart="154.50" from="-372466117#0" to="828724797#0" type="car"/>
    <trip id="ca_104" depart="156.00" from="1280219261" to="-643237806#1" type="car"/>
    <trip id="ca_105" depart="157.50" from="372467078#0" to="-828678857" type="car"/>
    <trip id="ca_106" depart="159.00" from="695025560#0" to="-302751295#20" type="car"/>
    <trip id="ca_107" depart="160.50" from="642047427#0" to="160628085#2" type="car"/>
    <trip id="ca_108" depart="162.00" from="695025562#0" to="1034028675#6" type="car"/>
    <trip id="ca_109" depart="163.50" from="695295267#2" to="694715298" type="car"/>
    <trip id="ca_110" depart="165.00" from="-372220804#16" to="-372467085#0" type="car"/>
    <trip id="ca_111" depart="166.50" from="35950868#32" to="1282340737" type="car"/>
    <trip id="ca_112" depart="168.00" from="828724763#1" to="1418093030" type="car"/>
    <trip id="ca_113" depart="169.50" from="-372220804#4" to="-302751295#33" type="car"/>
    <trip id="ca_114" depart="171.00" from="295408452#16-AddedOffRampEdge" to="295408462#0" type="car"/>
    <trip id="ca_115" depart="172.50" from="697200467#4" to="199383481-AddedOnRampEdge" type="car"/>
    <trip id="ca_116" depart="174.00" from="372589137#0" to="-828724700#1" type="car"/>
    <trip id="ca_117" depart="175.50" from="-35950868#23" to="-676453142#0" type="car"/>
    <trip id="ca_118" depart="177.00" from="295408461#0" to="695040552#0" type="car"/>
    <trip id="ca_119" depart="178.50" from="295408452#16-AddedOffRampEdge" to="35950882#9" type="car"/>
    <trip id="ca_120" depart="180.00" from="693885803#27" to="695295267#0" type="car"/>
    <trip id="ca_121" depart="181.50" from="695504114#1" to="302751284#3" type="car"/>
    <trip id="ca_122" depart="183.00" from="39368999#4" to="1279915896#1" type="car"/>
    <trip id="ca_123" depart="184.50" from="39368999#17" to="35950925#4" type="car"/>
    <trip id="ca_124" depart="186.00" from="-118673929#4" to="295408462#10" type="car"/>
    <trip id="ca_125" depart="187.50" from="-641092773" to="295449627#0" type="car"/>
    <trip id="ca_126" depart="189.00" from="-372466117#1" to="-39368999#14" type="car"/>
    <trip id="ca_127" depart="190.50" from="1280089222" to="1282340737" type="car"/>
    <trip id="ca_128" depart="192.00" from="-39368999#14" to="695446625#3" type="car"/>
    <trip id="ca_129" depart="193.50" from="697200467#9" to="295408452#0" type="car"/>
    <trip id="ca_130" depart="195.00" from="695490086#1" to="643237807#2" type="car"/>
    <trip id="ca_131" depart="196.50" from="697200467#0" to="-118673921#1" type="car"/>
    <trip id="ca_132" depart="198.00" from="695504114#1" to="295408463#1" type="car"/>
    <trip id="ca_133" depart="199.50" from="694830397" to="828724710" type="car"/>
    <trip id="ca_134" depart="201.00" from="695446625#3" to="35950868#8" type="car"/>
    <trip id="ca_135" depart="202.50" from="39368999#9" to="-118575976#0" type="car"/>
    <trip id="ca_136" depart="204.00" from="295449625#0" to="-118575972#4" type="car"/>
    <trip id="ca_137" depart="205.50" from="910359052#9" to="1282340735" type="car"/>
    <trip id="ca_138" depart="207.00" from="895475668" to="-828724705#1" type="car"/>
    <trip id="ca_139" depart="208.50" from="1279915921" to="-35950868#25" type="car"/>
    <trip id="ca_140" depart="210.00" from="694601892" to="695646333" type="car"/>
    <trip id="ca_141" depart="211.50" from="694583900#0" to="295408452#7" type="car"/>
    <trip id="ca_142" depart="213.00" from="693111346#0" to="408161670#22" type="car"/>
    <trip id="ca_143" depart="214.50" from="698046188#1" to="695510007#0" type="car"/>
    <trip id="ca_144" depart="216.00" from="1280219259#0" to="695502611#0" type="car"/>
    <trip id="ca_145" depart="217.50" from="295408459#3" to="295408452#0" type="car"/>
    <trip id="ca_146" depart="219.00" from="344658497#0" to="1280614485" type="car"/>
    <trip id="ca_147" depart="220.50" from="689583171#15" to="694600787" type="car"/>
    <trip id="ca_148" depart="222.00" from="-321069050#0" to="295408460#2" type="car"/>
    <trip id="ca_149" depart="223.50" from="302751284#3" to="779462187#1" type="car"/>
    <trip id="ca_150" depart="225.00" from="689583171#0" to="1280089201#2" type="car"/>
    <trip id="ca_151" depart="226.50" from="693330103#0" to="35950925#2" type="car"/>
    <trip id="ca_152" depart="228.00" from="-256672294" to="695502611#1" type="car"/>
    <trip id="ca_153" depart="229.50" from="302751295#28" to="1034028676#0" type="car"/>
    <trip id="ca_154" depart="231.00" from="-689583178#2" to="408161670#24" type="car"/>
    <trip id="ca_155" depart="232.50" from="910359052#7" to="-1446429434#2" type="car"/>
    <trip id="ca_156" depart="234.00" from="697200467#4" to="1280614485" type="car"/>
    <trip id="ca_157" depart="235.50" from="295408452#8" to="160628085#0" type="car"/>
    <trip id="ca_158" depart="237.00" from="1280089201#1" to="1418093030" type="car"/>
    <trip id="ca_159" depart="238.50" from="693885804#0" to="910359052#0" type="car"/>
    <trip id="ca_160" depart="240.00" from="118570181#0" to="694775628#2" type="car"/>
    <trip id="ca_161" depart="241.50" from="1034028675#2" to="828724682" type="car"/>
    <trip id="ca_162" depart="243.00" from="-35950868#15" to="694600787" type="car"/>
    <trip id="ca_163" depart="244.50" from="295408461#4" to="910359052#8" type="car"/>
    <trip id="ca_164" depart="246.00" from="295128790#4" to="642354268#1" type="car"/>
    <trip id="ca_165" depart="247.50" from="295128790#0" to="-372220804#22" type="car"/>
    <trip id="ca_166" depart="249.00" from="35950868#21" to="779462187#1" type="car"/>
    <trip id="ca_167" depart="250.50" from="295408452#16" to="676467950" type="car"/>
    <trip id="ca_168" depart="252.00" from="695504114#4" to="694601892" type="car"/>
    <trip id="ca_169" depart="253.50" from="1446454670" to="694600787" type="car"/>
    <trip id="ca_170" depart="255.00" from="-118570174#1" to="35950897#15" type="car"/>
    <trip id="ca_171" depart="256.50" from="697200467#4" to="199383481-AddedOnRampEdge" type="car"/>
    <trip id="ca_172" depart="258.00" from="695295267#0" to="295128790#0" type="car"/>
    <trip id="ca_173" depart="259.50" from="295408452#16-AddedOffRampEdge" to="35950897#15" type="car"/>
    <trip id="ca_174" depart="261.00" from="1210918872#1" to="695429325#1" type="car"/>
    <trip id="ca_175" depart="262.50" from="910359052#8" to="695510007#0" type="car"/>
    <trip id="ca_176" depart="264.00" from="295449627#4" to="1391330070#9" type="car"/>
    <trip id="ca_177" depart="265.50" from="694583900#0-AddedOffRampEdge" to="828678773#0" type="car"/>
    <trip id="ca_178" depart="267.00" from="-828678811#0" to="118566873#0" type="car"/>
    <trip id="ca_179" depart="268.50" from="408161670#27" to="302737424#1" type="car"/>
    <trip id="ca_180" depart="270.00" from="35950897#0" to="-39368999#1" type="car"/>
    <trip id="ca_181" depart="271.50" from="-35950868#23" to="1280219260#1" type="car"/>
    <trip id="ca_182" depart="273.00" from="695510007#0" to="-372220804#34" type="car"/>
    <trip id="ca_183" depart="274.50" from="695025560#0" to="697200463#0" type="car"/>
    <trip id="ca_184" depart="276.00" from="693885804#0" to="895499825" type="car"/>
    <trip id="ca_185" depart="277.50" from="118570183#1" to="695446625#1" type="car"/>
    <trip id="ca_186" depart="279.00" from="697200467#8" to="408161670#24" type="car"/>
    <trip id="ca_187" depart="280.50" from="295449625#1" to="779462187#0" type="car"/>
    <trip id="ca_188" depart="282.00" from="-302751295#11" to="372220804#5" type="car"/>
    <trip id="ca_189" depart="283.50" from="828678789" to="1280219265" type="car"/>
    <trip id="ca_190" depart="285.00" from="1279915919" to="1280219257#0" type="car"/>
    <trip id="ca_191" depart="286.50" from="295408452#16-AddedOffRampEdge" to="-118570167#1" type="car"/>
    <trip id="ca_192" depart="288.00" from="408161670#18" to="295408452#8" type="car"/>
    <trip id="ca_193" depart="289.50" from="694830396" to="1282340736" type="car"/>
    <trip id="ca_194" depart="291.00" from="372464931#1" to="-828724768#0" type="car"/>
    <trip id="ca_195" depart="292.50" from="1279915900#2" to="828724754#0" type="car"/>
    <trip id="ca_196" depart="294.00" from="696169688" to="-828678874#0" type="car"/>
    <trip id="ca_197" depart="295.50" from="1280089201#2" to="295408459#5" type="car"/>
    <trip id="ca_198" depart="297.00" from="1279915919" to="-35950868#37" type="car"/>
    <trip id="ca_199" depart="298.50" from="695030266" to="295408462#10" type="car"/>
    <trip id="ca_200" depart="300.00" from="693330103#0" to="779462187#0" type="car"/>
    <trip id="ca_201" depart="301.50" from="-118673937#2" to="118567495" type="car"/>
    <trip id="ca_202" depart="303.00" from="695446625#1" to="1034028678" type="car"/>
    <trip id="ca_203" depart="304.50" from="1280219261" to="693885804#0" type="car"/>
    <trip id="ca_204" depart="306.00" from="1280614504#0" to="39368999#14" type="car"/>
    <trip id="ca_205" depart="307.50" from="321069061" to="695446625#3" type="car"/>
    <trip id="ca_206" depart="309.00" from="-372467087#1" to="-295386152#1" type="car"/>
    <trip id="ca_207" depart="310.50" from="1282340737" to="894924691" type="car"/>
    <trip id="ca_208" depart="312.00" from="295449625#0" to="295408463#1" type="car"/>
    <trip id="ca_209" depart="313.50" from="-695510008#0" to="295408452#7" type="car"/>
    <trip id="ca_210" depart="315.00" from="695502613" to="295449627#4" type="car"/>
    <trip id="ca_211" depart="316.50" from="295408452#8" to="689583171#11" type="car"/>
    <trip id="ca_212" depart="318.00" from="295408452#8" to="295449627#0" type="car"/>
    <trip id="ca_213" depart="319.50" from="408161670#22" to="695025560#0" type="car"/>
    <trip id="ca_214" depart="321.00" from="697200467#11" to="694594970#0" type="car"/>
    <trip id="ca_215" depart="322.50" from="-35950868#12" to="-828724756#0" type="car"/>
    <trip id="ca_216" depart="324.00" from="302751282-AddedOnRampEdge" to="302751282-AddedOnRampEdge" type="car"/>
    <trip id="ca_217" depart="325.50" from="-300949142#0" to="779462187#1" type="car"/>
    <trip id="ca_218" depart="327.00" from="964171425#6" to="828724763#1" type="car"/>
    <trip id="ca_219" depart="328.50" from="694598419#1" to="693885804#0" type="car"/>
    <trip id="ca_220" depart="330.00" from="695502611#1" to="695504114#4" type="car"/>
    <trip id="ca_221" depart="331.50" from="295408468#4" to="118673944#6" type="car"/>
    <trip id="ca_222" depart="333.00" from="1280089222" to="295128790#0" type="car"/>
    <trip id="ca_223" depart="334.50" from="295408462#10" to="693416739#3" type="car"/>
    <trip id="ca_224" depart="336.00" from="1034028676#1" to="1280614485" type="car"/>
    <trip id="ca_225" depart="337.50" from="695040105#5" to="695504114#0" type="car"/>
    <trip id="ca_226" depart="339.00" from="295408463#0" to="1282340717#1" type="car"/>
    <trip id="ca_227" depart="340.50" from="295408452#10" to="910359052#5" type="car"/>
    <trip id="ca_228" depart="342.00" from="118573606#13" to="408161670#13" type="car"/>
    <trip id="ca_229" depart="343.50" from="828724757#0" to="-372220804#29" type="car"/>
    <trip id="ca_230" depart="345.00" from="694594970#0" to="695504114#0" type="car"/>
    <trip id="ca_231" depart="346.50" from="695502613" to="1282340717#2" type="car"/>
    <trip id="ca_232" depart="348.00" from="-344658497#2" to="-828724682" type="car"/>
    <trip id="ca_233" depart="349.50" from="828678805" to="695040552#1" type="car"/>
    <trip id="ca_234" depart="351.00" from="35950925#7" to="694601892" type="car"/>
    <trip id="ca_235" depart="352.50" from="1282340736" to="-561474235" type="car"/>
    <trip id="ca_236" depart="354.00" from="295449627#5" to="118673944#1" type="car"/>
    <trip id="ca_237" depart="355.50" from="295128790#0" to="-302751295#1" type="car"/>
    <trip id="ca_238" depart="357.00" from="160628085#1" to="693885802#0" type="car"/>
    <trip id="ca_239" depart="358.50" from="-302751295#31" to="693885804#0" type="car"/>
    <trip id="ca_240" depart="360.00" from="-35950864#23" to="-1379125025" type="car"/>
    <trip id="ca_241" depart="361.50" from="-372220804#12" to="-828678779#1" type="car"/>
    <trip id="ca_242" depart="363.00" from="694583900#0-AddedOffRampEdge" to="828724766" type="car"/>
    <trip id="ca_243" depart="364.50" from="828724696" to="1034028675#6" type="car"/>
    <trip id="ca_244" depart="366.00" from="1210918872#1" to="695496039#2" type="car"/>
    <trip id="ca_245" depart="367.50" from="-1124338484" to="828724687" type="car"/>
    <trip id="ca_246" depart="369.00" from="1280089201#2" to="1280089201#1" type="car"/>
    <trip id="ca_247" depart="370.50" from="694830397" to="1034027336#2" type="car"/>
    <trip id="ca_248" depart="372.00" from="160628085#2" to="-828678777#1" type="car"/>
    <trip id="ca_249" depart="373.50" from="695502614" to="-828678860#1" type="car"/>
    <trip id="ca_250" depart="375.00" from="372467078#1" to="-828678787#2" type="car"/>
    <trip id="ca_251" depart="376.50" from="408161670#22" to="695446625#1" type="car"/>
    <trip id="ca_252" depart="378.00" from="295128790#0" to="828678797" type="car"/>
    <trip id="ca_253" depart="379.50" from="295408452#0" to="-560329300" type="car"/>
    <trip id="ca_254" depart="381.00" from="35950897#15" to="-35950883#8" type="car"/>
    <trip id="ca_255" depart="382.50" from="697200467#1" to="779462187#1" type="car"/>
    <trip id="ca_256" depart="384.00" from="1034028675#6" to="910359052#9" type="car"/>
    <trip id="ca_257" depart="385.50" from="831070297#0" to="695502611#1" type="car"/>
    <trip id="ca_258" depart="387.00" from="1282715056" to="779462187#0" type="car"/>
    <trip id="ca_259" depart="388.50" from="160628085#1" to="695502611#0" type="car"/>
    <trip id="ca_260" depart="390.00" from="-828678810#4" to="-118570169#2" type="car"/>
    <trip id="ca_261" depart="391.50" from="1279915896#0" to="1280219257#0" type="car"/>
    <trip id="ca_262" depart="393.00" from="-562634341" to="-372467078#2" type="car"/>
    <trip id="ca_263" depart="394.50" from="372467085#0" to="-828724748" type="car"/>
    <trip id="ca_264" depart="396.00" from="694830397" to="1034028678" type="car"/>
    <trip id="ca_265" depart="397.50" from="-676489596#1" to="828724755#1" type="car"/>
    <trip id="ca_266" depart="399.00" from="1282340739" to="1282340735" type="car"/>
    <trip id="ca_267" depart="400.50" from="-118672606#5" to="295408452#16" type="car"/>
    <trip id="ca_268" depart="402.00" from="1391330070#9" to="302751282" type="car"/>
    <trip id="ca_269" depart="403.50" from="35950925#2" to="302751282-AddedOnRampEdge" type="car"/>
    <trip id="ca_270" depart="405.00" from="-676453140#0" to="693885804#0" type="car"/>
    <trip id="ca_271" depart="406.50" from="693330103#0" to="696168834#1" type="car"/>
    <trip id="ca_272" depart="408.00" from="-561913438#4" to="-1387292390#0" type="car"/>
    <trip id="ca_273" depart="409.50" from="964171425#6" to="-694715297" type="car"/>
    <trip id="ca_274" depart="411.00" from="1280089222" to="-765351891#3" type="car"/>
    <trip id="ca_275" depart="412.50" from="160628085#2" to="964171425#6" type="car"/>
    <trip id="ca_276" depart="414.00" from="302751284#0" to="695496039#2" type="car"/>
    <trip id="ca_277" depart="415.50" from="828678747" to="35950925#2" type="car"/>
    <trip id="ca_278" depart="417.00" from="1282340772" to="1392384121#0" type="car"/>
    <trip id="ca_279" depart="418.50" from="-676453139#1" to="1280219259#1" type="car"/>
    <trip id="ca_280" depart="420.00" from="-118575965" to="-828678770" type="car"/>
    <trip id="ca_281" depart="421.50" from="696168834#1" to="1280219265" type="car"/>
    <trip id="ca_282" depart="423.00" from="295128790#4" to="695510007#0" type="car"/>
    <trip id="ca_283" depart="424.50" from="-372464931#4" to="695490086#1" type="car"/>
    <trip id="ca_284" depart="426.00" from="118688839#1" to="1280219259#0" type="car"/>
    <trip id="ca_285" depart="427.50" from="828724724#0" to="643264676" type="car"/>
    <trip id="ca_286" depart="429.00" from="295408452#7" to="1280219258#0" type="car"/>
    <trip id="ca_287" depart="430.50" from="697200467#11" to="-562709015#0" type="car"/>
    <trip id="ca_288" depart="432.00" from="-828678831" to="698936203#4" type="car"/>
    <trip id="ca_289" depart="433.50" from="693885802#0" to="408161670#25" type="car"/>
    <trip id="ca_290" depart="435.00" from="39368999#3" to="295408460#2" type="car"/>
    <trip id="ca_291" depart="436.50" from="694774375#0" to="1279915896#1" type="car"/>
    <trip id="ca_292" depart="438.00" from="372220804#21" to="694775628#2" type="car"/>
    <trip id="ca_293" depart="439.50" from="-828678876#1" to="1034028675#2" type="car"/>
    <trip id="ca_294" depart="441.00" from="560329291#0" to="295408452#16-AddedOffRampEdge" type="car"/>
    <trip id="ca_295" depart="442.50" from="-39354228#3" to="1279915919" type="car"/>
    <trip id="ca_296" depart="444.00" from="1034028676#1" to="697869050#1" type="car"/>
    <trip id="ca_297" depart="445.50" from="1282340735" to="-35950883#9" type="car"/>
    <trip id="ca_298" depart="447.00" from="118567886#0" to="295408463#0" type="car"/>
    <trip id="ca_299" depart="448.50" from="676465939#0" to="295408465#2-AddedOnRampEdge" type="car"/>
    <trip id="ca_300" depart="450.00" from="408161670#27" to="295408462#1" type="car"/>
    <trip id="ca_301" depart="451.50" from="1034028675#0" to="695295267#2" type="car"/>
    <trip id="ca_302" depart="453.00" from="694598419#1-AddedOnRampEdge" to="118570175" type="car"/>
    <trip id="ca_303" depart="454.50" from="408161670#27" to="408161670#20" type="car"/>
    <trip id="ca_304" depart="456.00" from="1034027336#2" to="695502611#0" type="car"/>
    <trip id="ca_305" depart="457.50" from="698046188#1" to="-697870570" type="car"/>
    <trip id="ca_306" depart="459.00" from="910359052#0" to="-641397123#1" type="car"/>
    <trip id="ca_307" depart="460.50" from="695054805#1" to="697200467#4" type="car"/>
    <trip id="ca_308" depart="462.00" from="-118570164#0" to="828724780" type="car"/>
    <trip id="ca_309" depart="463.50" from="1280614504#0" to="-118567886#1" type="car"/>
    <trip id="ca_310" depart="465.00" from="295408452#7" to="1280219260#0" type="car"/>
    <trip id="ca_311" depart="466.50" from="344692547#3" to="295408452#0" type="car"/>
    <trip id="ca_312" depart="468.00" from="-35950864#29" to="964171425#5" type="car"/>
    <trip id="ca_313" depart="469.50" from="-695090346#4" to="696168834#0" type="car"/>
    <trip id="ca_314" depart="471.00" from="295408452#7" to="-828678811#0" type="car"/>
    <trip id="ca_315" depart="472.50" from="295408452#8" to="302751282-AddedOnRampEdge" type="car"/>
    <trip id="ca_316" depart="474.00" from="295408452#10" to="693885804#0" type="car"/>
    <trip id="ca_317" depart="475.50" from="118567892" to="910359052#0" type="car"/>
    <trip id="ca_318" depart="477.00" from="295408463#1" to="828678862#2" type="car"/>
    <trip id="ca_319" depart="478.50" from="35950959#9" to="295394152#0" type="car"/>
    <trip id="ca_320" depart="480.00" from="295408459#4" to="-118570172#2" type="car"/>
    <trip id="ca_321" depart="481.50" from="295408462#8" to="302751295#26" type="car"/>
    <trip id="ca_322" depart="483.00" from="1280219260#0" to="-828678742" type="car"/>
    <trip id="ca_323" depart="484.50" from="-828724763#2" to="910359052#0" type="car"/>
    <trip id="ca_324" depart="486.00" from="39368999#1" to="828724786" type="car"/>
    <trip id="ca_325" depart="487.50" from="693885803#27" to="1280089222" type="car"/>
    <trip id="ca_326" depart="489.00" from="295408452#16" to="694601892" type="car"/>
    <trip id="ca_327" depart="490.50" from="118570175" to="695496039#3" type="car"/>
    <trip id="ca_328" depart="492.00" from="694715298" to="-118555049#7" type="car"/>
    <trip id="ca_329" depart="493.50" from="694830396" to="698936203#8" type="car"/>
    <trip id="ca_330" depart="495.00" from="-302751295#3" to="295408452#16-AddedOffRampEdge" type="car"/>
    <trip id="ca_331" depart="496.50" from="695025562#0" to="295408452#6" type="car"/>