<?xml version="1.0" encoding="UTF-8"?>

<!-- generated on 2026-03-22 01:29:07.740758 by Eclipse SUMO randomTrips.py v1_26_0+0000-fa7df22d7f1
<configuration>
    <net-file value="D:\WeSaveTime-ASEAN\sumo\danang\danang.net.xml"/>
    <additional-files value="D:\WeSaveTime-ASEAN\sumo\danang\danang.vtypes.xml"/>
    <weights-prefix value="D:\WeSaveTime-ASEAN\sumo\danang\danang.weights"/>
    <output-trip-file value="D:\WeSaveTime-ASEAN\sumo\danang\danang.mx_.trips.xml"/>
    <prefix value="mx_"/>
    <trip-attributes value="type=&quot;motorbike2&quot;"/>
    <fringe-factor value="2"/>
    <random value="True"/>
    <remove-loops value="True"/>
    <end value="600.0"/>
    <period value="1.58"/>
</configuration>
-->

<routes xmlns:xsi="http://www.w3.org/2001/XMLSchema-instance" xsi:noNamespaceSchemaLocation="http://sumo.dlr.de/xsd/routes_file.xsd">
    <trip id="mx_0" depart="0.00" from="964171425#6" to="408161670#16" type="motorbike2"/>
    <trip id="mx_1" depart="1.58" from="1280219250" to="910359052#5" type="motorbike2"/>
    <trip id="mx_2" depart="3.16" from="1282340718" to="697200467#8" type="motorbike2"/>
    <trip id="mx_3" depart="4.74" from="695496039#2" to="295408452#5" type="motorbike2"/>
    <trip id="mx_4" depart="6.32" from="256672294" to="408161670#16" type="motorbike2"/>
    <trip id="mx_5" depart="7.90" from="695490087#1" to="295408463#1" type="motorbike2"/>
    <trip id="mx_6" depart="9.48" from="695040552#1" to="695295267#0" type="motorbike2"/>
    <trip id="mx_7" depart="11.06" from="-39368999#16" to="295408462#8" type="motorbike2"/>
    <trip id="mx_8" depart="12.64" from="295449627#0" to="910359052#3" type="motorbike2"/>
    <trip id="mx_9" depart="14.22" from="1282340772" to="-828724749#0" type="motorbike2"/>
    <trip id="mx_10" depart="15.80" from="693416739#3" to="693885802#2" type="motorbike2"/>
    <trip id="mx_11" depart="17.38" from="35950925#6" to="295408462#10" type="motorbike2"/>
    <trip id="mx_12" depart="18.96" from="-39368999#21" to="695033474#1" type="motorbike2"/>
    <trip id="mx_13" depart="20.54" from="-828724746" to="118672464#4" type="motorbike2"/>
    <trip id="mx_14" depart="22.12" from="-118672607#0" to="695510007#0" type="motorbike2"/>
    <trip id="mx_15" depart="23.70" from="561474235" to="-118672606#1" type="motorbike2"/>
    <trip id="mx_16" depart="25.28" from="295408462#10" to="694600787" type="motorbike2"/>
    <trip id="mx_17" depart="26.86" from="695446625#1" to="408161670#22" type="motorbike2"/>
    <trip id="mx_18" depart="28.44" from="-256672293" to="295128790#4" type="motorbike2"/>
    <trip id="mx_19" depart="30.02" from="-828724764#0" to="-641120965#1" type="motorbike2"/>
    <trip id="mx_20" depart="31.60" from="295408461#1" to="-979325965#1" type="motorbike2"/>
    <trip id="mx_21" depart="33.18" from="39368999#15" to="295449625#0" type="motorbike2"/>
    <trip id="mx_22" depart="34.76" from="-828678814#5" to="1280219265" type="motorbike2"/>
    <trip id="mx_23" depart="36.34" from="118570185#0" to="1280089201#1" type="motorbike2"/>
    <trip id="mx_24" depart="37.92" from="-828678837#0" to="1280089201#0" type="motorbike2"/>
    <trip id="mx_25" depart="39.50" from="895487327" to="35950897#0" type="motorbike2"/>
    <trip id="mx_26" depart="41.08" from="695496039#2" to="828724748" type="motorbike2"/>
    <trip id="mx_27" depart="42.66" from="408161670#27" to="-1361140406" type="motorbike2"/>
    <trip id="mx_28" depart="44.24" from="408161670#27" to="-372220804#33" type="motorbike2"/>
    <trip id="mx_29" depart="45.82" from="694583900#0-AddedOffRampEdge" to="35950868#29" type="motorbike2"/>
    <trip id="mx_30" depart="47.40" from="-118672444#5" to="295408452#9" type="motorbike2"/>
    <trip id="mx_31" depart="48.98" from="-695040102#0" to="199383481-AddedOnRampEdge" type="motorbike2"/>
    <trip id="mx_32" depart="50.56" from="910359052#8" to="696168834#0" type="motorbike2"/>
    <trip id="mx_33" depart="52.14" from="-828724708" to="295408452#5" type="motorbike2"/>
    <trip id="mx_34" depart="53.72" from="408161670#21" to="695295268" type="motorbike2"/>
    <trip id="mx_35" depart="55.30" from="118688839#1" to="-765351891#4" type="motorbike2"/>
    <trip id="mx_36" depart="56.88" from="673151142#4" to="35950897#15" type="motorbike2"/>
    <trip id="mx_37" depart="58.46" from="694715299#1" to="695496039#2" type="motorbike2"/>
    <trip id="mx_38" depart="60.04" from="828724700#0" to="-828678907" type="motorbike2"/>
    <trip id="mx_39" depart="61.62" from="160628085#2" to="302751282" type="motorbike2"/>
    <trip id="mx_40" depart="63.20" from="295128790#10" to="828678857" type="motorbike2"/>
    <trip id="mx_41" depart="64.78" from="372467078#3" to="694598419#1" type="motorbike2"/>
    <trip id="mx_42" depart="66.36" from="-118566873#1" to="372464937#5" type="motorbike2"/>
    <trip id="mx_43" depart="67.94" from="1280219257#1" to="697200467#9" type="motorbike2"/>
    <trip id="mx_44" depart="69.52" from="-372466114#0" to="295408452#6" type="motorbike2"/>
    <trip id="mx_45" depart="71.10" from="-39368999#13" to="-35950959#1" type="motorbike2"/>
    <trip id="mx_46" depart="72.68" from="695496042#2" to="560454395" type="motorbike2"/>
    <trip id="mx_47" depart="74.26" from="697200467#11" to="-1379125025" type="motorbike2"/>
    <trip id="mx_48" depart="75.84" from="1280219261" to="295449627#0" type="motorbike2"/>
    <trip id="mx_49" depart="77.42" from="697200467#7" to="695025560#1" type="motorbike2"/>
    <trip id="mx_50" depart="79.00" from="-118570181#5" to="-641436976" type="motorbike2"/>
    <trip id="mx_51" depart="80.58" from="1280614485" to="-834094454" type="motorbike2"/>
    <trip id="mx_52" depart="82.16" from="408161670#21" to="695490087#1" type="motorbike2"/>
    <trip id="mx_53" depart="83.74" from="964171425#0" to="295449627#5" type="motorbike2"/>
    <trip id="mx_54" depart="85.32" from="118570178#1" to="118673944#3" type="motorbike2"/>
    <trip id="mx_55" depart="86.90" from="828678798#0" to="641397122#1" type="motorbike2"/>
    <trip id="mx_56" depart="88.48" from="694583900#0-AddedOffRampEdge" to="697200467#4" type="motorbike2"/>
    <trip id="mx_57" depart="90.06" from="828678864" to="697200467#8" type="motorbike2"/>
    <trip id="mx_58" depart="91.64" from="35950868#24" to="-828678811#1" type="motorbike2"/>
    <trip id="mx_59" depart="93.22" from="1391330070#12" to="697200467#4-AddedOffRampEdge" type="motorbike2"/>
    <trip id="mx_60" depart="94.80" from="1280219261" to="295408452#16" type="motorbike2"/>
    <trip id="mx_61" depart="96.38" from="295408452#16-AddedOffRampEdge" to="-828678743" type="motorbike2"/>
    <trip id="mx_62" depart="97.96" from="697200467#11" to="695496039#0" type="motorbike2"/>
    <trip id="mx_63" depart="99.54" from="1280614504#2" to="295128790#10" type="motorbike2"/>
    <trip id="mx_64" depart="101.12" from="695490086#1" to="295408468#4" type="motorbike2"/>
    <trip id="mx_65" depart="102.70" from="698936203#9" to="828724698" type="motorbike2"/>
    <trip id="mx_66" depart="104.28" from="295408452#0" to="295408461#9" type="motorbike2"/>
    <trip id="mx_67" depart="105.86" from="910359052#5" to="-828724694#0" type="motorbike2"/>
    <trip id="mx_68" depart="107.44" from="1282340772" to="828724757#0" type="motorbike2"/>
    <trip id="mx_69" depart="109.02" from="302751295#17" to="295128790#4" type="motorbike2"/>
    <trip id="mx_70" depart="110.60" from="408161670#20" to="-696701808" type="motorbike2"/>
    <trip id="mx_71" depart="112.18" from="964171425#6" to="-35950883#8" type="motorbike2"/>
    <trip id="mx_72" depart="113.76" from="295408462#1" to="118555049#0" type="motorbike2"/>
    <trip id="mx_73" depart="115.34" from="1034028675#2" to="695030266" type="motorbike2"/>
    <trip id="mx_74" depart="116.92" from="697200467#1" to="695295267#2" type="motorbike2"/>
    <trip id="mx_75" depart="118.50" from="295386152#3" to="405113895" type="motorbike2"/>
    <trip id="mx_76" depart="120.08" from="-295449629#2" to="695025559" type="motorbike2"/>
    <trip id="mx_77" depart="121.66" from="-641436976" to="964171425#0" type="motorbike2"/>
    <trip id="mx_78" depart="123.24" from="-35950868#15" to="-828724752#1" type="motorbike2"/>
    <trip id="mx_79" depart="124.82" from="695295267#0" to="-302751295#9" type="motorbike2"/>
    <trip id="mx_80" depart="126.40" from="-1446429434#3" to="1282340735" type="motorbike2"/>
    <trip id="mx_81" depart="127.98" from="1361140406" to="35950897#0" type="motorbike2"/>
    <trip id="mx_82" depart="129.56" from="-118672444#3" to="689583171#7" type="motorbike2"/>
    <trip id="mx_83" depart="131.14" from="295408452#11" to="295408461#0" type="motorbike2"/>
    <trip id="mx_84" depart="132.72" from="-35950868#30" to="35950897#6" type="motorbike2"/>
    <trip id="mx_85" depart="134.30" from="-39368999#14" to="295408461#1" type="motorbike2"/>
    <trip id="mx_86" depart="135.88" from="343236557#1" to="-642047428" type="motorbike2"/>
    <trip id="mx_87" depart="137.46" from="295408461#4" to="295408468#4" type="motorbike2"/>
    <trip id="mx_88" depart="139.04" from="295386152#1" to="408161670#16" type="motorbike2"/>
    <trip id="mx_89" depart="140.62" from="693111346#0" to="695510007#0" type="motorbike2"/>
    <trip id="mx_90" depart="142.20" from="-372466116#1" to="118673886#0" type="motorbike2"/>
    <trip id="mx_91" depart="143.78" from="695025562#0" to="1282340717#1" type="motorbike2"/>
    <trip id="mx_92" depart="145.36" from="828724794" to="295408468#6" type="motorbike2"/>
    <trip id="mx_93" depart="146.94" from="1279915895#1" to="35950897#10" type="motorbike2"/>
    <trip id="mx_94" depart="148.52" from="673151145#0" to="695502611#1" type="motorbike2"/>
    <trip id="mx_95" depart="150.10" from="641397117" to="118570169#1" type="motorbike2"/>
    <trip id="mx_96" depart="151.68" from="295408460#3" to="-372464937#0" type="motorbike2"/>
    <trip id="mx_97" depart="153.26" from="295408463#1" to="-344658497#0" type="motorbike2"/>
    <trip id="mx_98" depart="154.84" from="695295267#0" to="695496039#2" type="motorbike2"/>
    <trip id="mx_99" depart="156.42" from="695502611#1" to="828678901" type="motorbike2"/>
    <trip id="mx_100" depart="158.00" from="828678868" to="-1255581684" type="motorbike2"/>
    <trip id="mx_101" depart="159.58" from="-641074760#0" to="1165643358" type="motorbike2"/>
    <trip id="mx_102" depart="161.16" from="697200467#10" to="-828678777#1" type="motorbike2"/>
    <trip id="mx_103" depart="162.74" from="405962811#0" to="1034028675#0" type="motorbike2"/>
    <trip id="mx_104" depart="164.32" from="35950942#2" to="-828678871" type="motorbike2"/>
    <trip id="mx_105" depart="165.90" from="-828724764#0" to="695496039#0" type="motorbike2"/>
    <trip id="mx_106" depart="167.48" from="-343236557#1" to="-118570159#5" type="motorbike2"/>
    <trip id="mx_107" depart="169.06" from="694767769" to="-697870570" type="motorbike2"/>
    <trip id="mx_108" depart="170.64" from="-372464935#4" to="676438752#0" type="motorbike2"/>
    <trip id="mx_109" depart="172.22" from="1280219266" to="1034028676#0" type="motorbike2"/>
    <trip id="mx_110" depart="173.80" from="694830396" to="295408465#2-AddedOnRampEdge" type="motorbike2"/>
    <trip id="mx_111" depart="175.38" from="1282340772" to="199383481-AddedOnRampEdge" type="motorbike2"/>
    <trip id="mx_112" depart="176.96" from="35950868#0" to="1280219250" type="motorbike2"/>
    <trip id="mx_113" depart="178.54" from="698936203#8" to="1280219260#1" type="motorbike2"/>
    <trip id="mx_114" depart="180.12" from="1280089222" to="695446623#0" type="motorbike2"/>
    <trip id="mx_115" depart="181.70" from="695040105#0" to="199383481-AddedOnRampEdge" type="motorbike2"/>
    <trip id="mx_116" depart="183.28" from="693416739#3" to="-118672607#0" type="motorbike2"/>
    <trip id="mx_117" depart="184.86" from="695490086#1" to="302751295#8" type="motorbike2"/>
    <trip id="mx_118" depart="186.44" from="641397122#1" to="39368999#16" type="motorbike2"/>
    <trip id="mx_119" depart="188.02" from="-118566872#12" to="779462187#1" type="motorbike2"/>
    <trip id="mx_120" depart="189.60" from="-828724763#4" to="828724797#1" type="motorbike2"/>
    <trip id="mx_121" depart="191.18" from="302739240#3" to="-118673921#1" type="motorbike2"/>
    <trip id="mx_122" depart="192.76" from="1076293830#0" to="828678789" type="motorbike2"/>
    <trip id="mx_123" depart="194.34" from="295449627#5" to="302751295#10" type="motorbike2"/>
    <trip id="mx_124" depart="195.92" from="118575965" to="118672619#3" type="motorbike2"/>
    <trip id="mx_125" depart="197.50" from="693885803#27" to="695025560#1" type="motorbike2"/>
    <trip id="mx_126" depart="199.08" from="-828678799" to="676465938#1" type="motorbike2"/>
    <trip id="mx_127" depart="200.66" from="-828724694#0" to="693885804#2" type="motorbike2"/>
    <trip id="mx_128" depart="202.24" from="-39368999#20" to="910359052#9" type="motorbike2"/>
    <trip id="mx_129" depart="203.82" from="300947940" to="1391330070#6" type="motorbike2"/>
    <trip id="mx_130" depart="205.40" from="693330103#2" to="372466120#0" type="motorbike2"/>
    <trip id="mx_131" depart="206.98" from="673151198#3" to="563780767#0" type="motorbike2"/>
    <trip id="mx_132" depart="208.56" from="-372467087#2" to="698936203#8" type="motorbike2"/>
    <trip id="mx_133" depart="210.14" from="828724763#6" to="408161670#20" type="motorbike2"/>
    <trip id="mx_134" depart="211.72" from="-828678790" to="828678799" type="motorbike2"/>
    <trip id="mx_135" depart="213.30" from="-828678821#1" to="295408452#16" type="motorbike2"/>
    <trip id="mx_136" depart="214.88" from="1034028678" to="-35950864#29" type="motorbike2"/>
    <trip id="mx_137" depart="216.46" from="1392384124" to="-828724768#2" type="motorbike2"/>
    <trip id="mx_138" depart="218.04" from="1282340717#1" to="1280219257#1" type="motorbike2"/>
    <trip id="mx_139" depart="219.62" from="695040105#0" to="828678814#6" type="motorbike2"/>
    <trip id="mx_140" depart="221.20" from="-828678805" to="695025562#1" type="motorbike2"/>
    <trip id="mx_141" depart="222.78" from="408161670#27" to="295128790#3" type="motorbike2"/>
    <trip id="mx_142" depart="224.36" from="302751284#3" to="1034027336#1" type="motorbike2"/>
    <trip id="mx_143" depart="225.94" from="-828724795#1" to="295408459#7" type="motorbike2"/>
    <trip id="mx_144" depart="227.52" from="39354228#5" to="-676465939#0" type="motorbike2"/>
    <trip id="mx_145" depart="229.10" from="-35950882#8" to="1418093030" type="motorbike2"/>
    <trip id="mx_146" depart="230.68" from="-828678787#1" to="295408461#4" type="motorbike2"/>
    <trip id="mx_147" depart="232.26" from="695040105#3" to="779462187#1" type="motorbike2"/>
    <trip id="mx_148" depart="233.84" from="35950925#7" to="-118575969#0" type="motorbike2"/>
    <trip id="mx_149" depart="235.42" from="696169687#1" to="1280219267" type="motorbike2"/>
    <trip id="mx_150" depart="237.00" from="-39368999#1" to="676453139#1" type="motorbike2"/>
    <trip id="mx_151" depart="238.58" from="693885804#0" to="35950925#0" type="motorbike2"/>
    <trip id="mx_152" depart="240.16" from="408161670#24" to="-562701508" type="motorbike2"/>
    <trip id="mx_153" depart="241.74" from="697200467#7" to="1280219260#0" type="motorbike2"/>
    <trip id="mx_154" depart="243.32" from="295408464#0-AddedOffRampEdge" to="1280219259#0" type="motorbike2"/>
    <trip id="mx_155" depart="244.90" from="295408452#16-AddedOffRampEdge" to="695295267#0" type="motorbike2"/>
    <trip id="mx_156" depart="246.48" from="35950959#2" to="1280219260#0" type="motorbike2"/>
    <trip id="mx_157" depart="248.06" from="828724779#1" to="-35950868#38" type="motorbike2"/>
    <trip id="mx_158" depart="249.64" from="-828724768#3" to="-39368999#3" type="motorbike2"/>
    <trip id="mx_159" depart="251.22" from="676465939#1" to="-372463312" type="motorbike2"/>
    <trip id="mx_160" depart="252.80" from="697200467#11" to="-676451738#1" type="motorbike2"/>
    <trip id="mx_161" depart="254.38" from="295449627#4" to="695446625#0" type="motorbike2"/>
    <trip id="mx_162" depart="255.96" from="302751285#1" to="695490086#1" type="motorbike2"/>
    <trip id="mx_163" depart="257.54" from="408161670#24" to="697200467#1" type="motorbike2"/>
    <trip id="mx_164" depart="259.12" from="295408463#1" to="-118570185#1" type="motorbike2"/>
    <trip id="mx_165" depart="260.70" from="693885804#2" to="828678786" type="motorbike2"/>
    <trip id="mx_166" depart="262.28" from="1279915895#1" to="302751295#6" type="motorbike2"/>
    <trip id="mx_167" depart="263.86" from="295408462#10" to="-118567489#2" type="motorbike2"/>
    <trip id="mx_168" depart="265.44" from="828724753" to="-118570169#2" type="motorbike2"/>
    <trip id="mx_169" depart="267.02" from="-1160397532" to="910359052#9" type="motorbike2"/>
    <trip id="mx_170" depart="268.60" from="698936202#0" to="-641092779" type="motorbike2"/>
    <trip id="mx_171" depart="270.18" from="35950868#30" to="676458407" type="motorbike2"/>
    <trip id="mx_172" depart="271.76" from="695295267#0" to="295408461#9" type="motorbike2"/>
    <trip id="mx_173" depart="273.34" from="118575975#1" to="-828724724#2" type="motorbike2"/>
    <trip id="mx_174" depart="274.92" from="828724785" to="295408452#16" type="motorbike2"/>
    <trip id="mx_175" depart="276.50" from="295408462#10" to="302751284#3" type="motorbike2"/>
    <trip id="mx_176" depart="278.08" from="-831070297#0" to="676438753#0" type="motorbike2"/>
    <trip id="mx_177" depart="279.66" from="-372220804#32" to="-695446623#0" type="motorbike2"/>
    <trip id="mx_178" depart="281.24" from="697200463#0" to="295408452#11" type="motorbike2"/>
    <trip id="mx_179" depart="282.82" from="-698067307#1" to="1034028676#1" type="motorbike2"/>
    <trip id="mx_180" depart="284.40" from="695502613" to="-641487801" type="motorbike2"/>
    <trip id="mx_181" depart="285.98" from="695496039#2" to="-302751295#33" type="motorbike2"/>
    <trip id="mx_182" depart="287.56" from="295408468#6" to="695025560#0" type="motorbike2"/>
    <trip id="mx_183" depart="289.14" from="-642098832#1" to="295408462#1" type="motorbike2"/>
    <trip id="mx_184" depart="290.72" from="-372467085#1" to="695490086#1" type="motorbike2"/>
    <trip id="mx_185" depart="292.30" from="-118570149#1" to="697200467#8" type="motorbike2"/>
    <trip id="mx_186" depart="293.88" from="295449627#4" to="695496039#2" type="motorbike2"/>
    <trip id="mx_187" depart="295.46" from="695502614" to="-828678792" type="motorbike2"/>
    <trip id="mx_188" depart="297.04" from="408161670#23" to="-828678742" type="motorbike2"/>
    <trip id="mx_189" depart="298.62" from="118567495" to="-676438752#4" type="motorbike2"/>
    <trip id="mx_190" depart="300.20" from="1282340772" to="693416427" type="motorbike2"/>
    <trip id="mx_191" depart="301.78" from="-372464937#4" to="295408452#6" type="motorbike2"/>
    <trip id="mx_192" depart="303.36" from="695502614" to="828724776" type="motorbike2"/>
    <trip id="mx_193" depart="304.94" from="302739240#0" to="828724712" type="motorbike2"/>
    <trip id="mx_194" depart="306.52" from="302739240#4" to="-118673944#4" type="motorbike2"/>
    <trip id="mx_195" depart="308.10" from="1282340736" to="1280089201#2" type="motorbike2"/>
    <trip id="mx_196" depart="309.68" from="118575967" to="-828678775" type="motorbike2"/>
    <trip id="mx_197" depart="311.26" from="295449625#1" to="695033474#1" type="motorbike2"/>
    <trip id="mx_198" depart="312.84" from="694772625#0" to="693330103#2" type="motorbike2"/>
    <trip id="mx_199" depart="314.42" from="695504114#1" to="-831070297#1" type="motorbike2"/>
    <trip id="mx_200" depart="316.00" from="35950897#1" to="1279915896#1" type="motorbike2"/>
    <trip id="mx_201" depart="317.58" from="-372466120#0" to="1034028675#6" type="motorbike2"/>
    <trip id="mx_202" depart="319.16" from="295408459#4" to="-302739239#2" type="motorbike2"/>
    <trip id="mx_203" depart="320.74" from="-118673886#0" to="828678838" type="motorbike2"/>
    <trip id="mx_204" depart="322.32" from="1280089201#0" to="696168834#1" type="motorbike2"/>
    <trip id="mx_205" depart="323.90" from="-561913438#2" to="-895482900" type="motorbike2"/>
    <trip id="mx_206" depart="325.48" from="-704621733#2" to="1280614485" type="motorbike2"/>
    <trip id="mx_207" depart="327.06" from="828678912#0" to="372466114#3" type="motorbike2"/>
    <trip id="mx_208" depart="328.64" from="697200467#4-AddedOffRampEdge" to="695030266" type="motorbike2"/>
    <trip id="mx_209" depart="330.22" from="673151144#0" to="1280219258#0" type="motorbike2"/>
    <trip id="mx_210" depart="331.80" from="1282340731" to="295394152#1" type="motorbike2"/>
    <trip id="mx_211" depart="333.38" from="1034028675#0" to="295408463#1" type="motorbike2"/>
    <trip id="mx_212" depart="334.96" from="295408462#0" to="964171425#0" type="motorbike2"/>
    <trip id="mx_213" depart="336.54" from="1279915898#9" to="408161670#20" type="motorbike2"/>
    <trip id="mx_214" depart="338.12" from="295128790#4" to="697200467#7" type="motorbike2"/>
    <trip id="mx_215" depart="339.70" from="694600787" to="697200467#9" type="motorbike2"/>
    <trip id="mx_216" depart="341.28" from="-35950868#0" to="1426764507#2" type="motorbike2"/>
    <trip id="mx_217" depart="342.86" from="828724754#0" to="35950883#7" type="motorbike2"/>
    <trip id="mx_218" depart="344.44" from="372466117#2" to="35950864#22" type="motorbike2"/>
    <trip id="mx_219" depart="346.02" from="694830395#1" to="1280219267" type="motorbike2"/>
    <trip id="mx_220" depart="347.60" from="295408452#7" to="695496039#0" type="motorbike2"/>
    <trip id="mx_221" depart="349.18" from="118570175" to="295408452#7" type="motorbike2"/>
    <trip id="mx_222" depart="350.76" from="694600787" to="-295386152#6" type="motorbike2"/>
    <trip id="mx_223" depart="352.34" from="-641466472" to="1426764507#0" type="motorbike2"/>
    <trip id="mx_224" depart="353.92" from="295449625#0" to="689583178#3" type="motorbike2"/>
    <trip id="mx_225" depart="355.50" from="1280614504#0" to="118570168#0" type="motorbike2"/>
    <trip id="mx_226" depart="357.08" from="695496040" to="408161670#27" type="motorbike2"/>
    <trip id="mx_227" depart="358.66" from="1034028675#2" to="-1279915898#5" type="motorbike2"/>
    <trip id="mx_228" depart="360.24" from="695502611#0" to="295408461#1" type="motorbike2"/>
    <trip id="mx_229" depart="361.82" from="-828724700#1" to="372466115#1" type="motorbike2"/>
    <trip id="mx_230" depart="363.40" from="910359052#3" to="302739240#4" type="motorbike2"/>
    <trip id="mx_231" depart="364.98" from="910359052#0" to="35950897#10" type="motorbike2"/>
    <trip id="mx_232" depart="366.56" from="1280614504#0" to="372220804#16" type="motorbike2"/>
    <trip id="mx_233" depart="368.14" from="-698067307#0" to="1124338482" type="motorbike2"/>
    <trip id="mx_234" depart="369.72" from="1280089222" to="372467087#2" type="motorbike2"/>
    <trip id="mx_235" depart="371.30" from="676438752#3" to="834094454" type="motorbike2"/>
    <trip id="mx_236" depart="372.88" from="408161670#13" to="696686428" type="motorbike2"/>
    <trip id="mx_237" depart="374.46" from="295408452#9" to="-828724684#1" type="motorbike2"/>
    <trip id="mx_238" depart="376.04" from="-118575972#2" to="408161670#23" type="motorbike2"/>
    <trip id="mx_239" depart="377.62" from="695040105#5" to="-828678814#3" type="motorbike2"/>
    <trip id="mx_240" depart="379.20" from="295449625#0" to="-676438752#1" type="motorbike2"/>
    <trip id="mx_241" depart="380.78" from="-828724712" to="695504114#4" type="motorbike2"/>
    <trip id="mx_242" depart="382.36" from="-676458408" to="295408452#7" type="motorbike2"/>
    <trip id="mx_243" depart="383.94" from="118672619#4" to="695510007#0" type="motorbike2"/>
    <trip id="mx_244" depart="385.52" from="35950897#6" to="-828724764#0" type="motorbike2"/>
    <trip id="mx_245" depart="387.10" from="693885802#0" to="1034027336#1" type="motorbike2"/>
    <trip id="mx_246" depart="388.68" from="408161670#18" to="910359052#0" type="motorbike2"/>
    <trip id="mx_247" depart="390.26" from="408161670#13" to="295408462#12" type="motorbike2"/>
    <trip id="mx_248" depart="391.84" from="302739240#3" to="779462187#1" type="motorbike2"/>
    <trip id="mx_249" depart="393.42" from="-35950868#6" to="695295267#2" type="motorbike2"/>
    <trip id="mx_250" depart="395.00" from="695496039#0" to="695504114#4" type="motorbike2"/>
    <trip id="mx_251" depart="396.58" from="372464937#0" to="408161670#16" type="motorbike2"/>
    <trip id="mx_252" depart="398.16" from="694830396" to="295394152#1" type="motorbike2"/>
    <trip id="mx_253" depart="399.74" from="1280219260#0" to="1280219259#0" type="motorbike2"/>
    <trip id="mx_254" depart="401.32" from="1282340719" to="697200467#4-AddedOffRampEdge" type="motorbike2"/>
    <trip id="mx_255" depart="402.90" from="-35950868#0" to="695504114#0" type="motorbike2"/>
    <trip id="mx_256" depart="404.48" from="-405962814" to="-302739239#2" type="motorbike2"/>
    <trip id="mx_257" depart="406.06" from="-828678777#0" to="695030266" type="motorbike2"/>
    <trip id="mx_258" depart="407.64" from="295408462#0" to="695040552#0" type="motorbike2"/>
    <trip id="mx_259" depart="409.22" from="694601892" to="295408452#7" type="motorbike2"/>
    <trip id="mx_260" depart="410.80" from="964171425#0" to="695496039#0" type="motorbike2"/>
    <trip id="mx_261" depart="412.38" from="35950897#13" to="-828678769#1" type="motorbike2"/>
    <trip id="mx_262" depart="413.96" from="-704621733#2" to="302751282-AddedOnRampEdge" type="motorbike2"/>
    <trip id="mx_263" depart="415.54" from="295408452#1" to="-828724810#0" type="motorbike2"/>
    <trip id="mx_264" depart="417.12" from="405962812#0" to="-828724763#2" type="motorbike2"/>
    <trip id="mx_265" depart="418.70" from="118672606#9" to="408161670#21" type="motorbike2"/>
    <trip id="mx_266" depart="420.28" from="295449627#2" to="695490087#1" type="motorbike2"/>
    <trip id="mx_267" depart="421.86" from="302751284#0" to="295449627#4" type="motorbike2"/>
    <trip id="mx_268" depart="423.44" from="-35950883#6" to="697200467#8" type="motorbike2"/>
    <trip id="mx_269" depart="425.02" from="695510007#0" to="408161670#28" type="motorbike2"/>
    <trip id="mx_270" depart="426.60" from="694830396" to="695496039#3" type="motorbike2"/>
    <trip id="mx_271" depart="428.18" from="828678803#1" to="693416739#0" type="motorbike2"/>
    <trip id="mx_272" depart="429.76" from="828678773#2" to="408161670#0" type="motorbike2"/>
    <trip id="mx_273" depart="431.34" from="1034028675#2" to="695496039#0" type="motorbike2"/>
    <trip id="mx_274" depart="432.92" from="695040105#0" to="561913437#4" type="motorbike2"/>
    <trip id="mx_275" depart="434.50" from="697200467#10" to="295408460#2" type="motorbike2"/>
    <trip id="mx_276" depart="436.08" from="-118673937#3" to="118688839#6" type="motorbike2"/>
    <trip id="mx_277" depart="437.66" from="118570175" to="698936203#3" type="motorbike2"/>
    <trip id="mx_278" depart="439.24" from="1034027336#2" to="408161670#17" type="motorbike2"/>
    <trip id="mx_279" depart="440.82" from="295408452#0" to="302751282-AddedOnRampEdge" type="motorbike2"/>
    <trip id="mx_280" depart="442.40" from="1034028675#2" to="-39368999#13" type="motorbike2"/>
    <trip id="mx_281" depart="443.98" from="1280219258#0" to="697200467#7" type="motorbike2"/>
    <trip id="mx_282" depart="445.56" from="-300949144#0" to="694601892" type="motorbike2"/>
    <trip id="mx_283" depart="447.14" from="642067353" to="828678846" type="motorbike2"/>
    <trip id="mx_284" depart="448.72" from="321069049#0" to="408161670#27" type="motorbike2"/>
    <trip id="mx_285" depart="450.30" from="-828724708" to="-372589135#1" type="motorbike2"/>
    <trip id="mx_286" depart="451.88" from="-118570149#2" to="676465939#0" type="motorbike2"/>
    <trip id="mx_287" depart="453.46" from="696168834#1" to="302751284#0" type="motorbike2"/>
    <trip id="mx_288" depart="455.04" from="295449627#0" to="302751295#28" type="motorbike2"/>
    <trip id="mx_289" depart="456.62" from="696755556#0" to="295408462#8" type="motorbike2"/>
    <trip id="mx_290" depart="458.20" from="695496039#3" to="295449627#0" type="motorbike2"/>
    <trip id="mx_291" depart="459.78" from="118570175" to="695040552#0" type="motorbike2"/>
    <trip id="mx_292" depart="461.36" from="1280219267" to="964171425#4" type="motorbike2"/>
    <trip id="mx_293" depart="462.94" from="295408460#3" to="-695510008#0" type="motorbike2"/>
    <trip id="mx_294" depart="464.52" from="302751284#0" to="693885804#0" type="motorbike2"/>
    <trip id="mx_295" depart="466.10" from="695030266" to="-35950882#13" type="motorbike2"/>
    <trip id="mx_296" depart="467.68" from="694598419#0" to="302751282-AddedOnRampEdge" type="motorbike2"/>
    <trip id="mx_297" depart="469.26" from="-118673944#7" to="1034027336#1" type="motorbike2"/>
    <trip id="mx_298" depart="470.84" from="694830397" to="295128790#3" type="motorbike2"/>
    <trip id="mx_299" depart="472.42" from="693885804#2" to="295408465#2-AddedOnRampEdge" type="motorbike2"/>
    <trip id="mx_300" depart="474.00" from="694583900#0-AddedOffRampEdge" to="-118573597" type="motorbike2"/>
    <trip id="mx_301" depart="475.58" from="-641487801" to="408161670#16" type="motorbike2"/>
    <trip id="mx_302" depart="477.16" from="295449627#0" to="408161672#1" type="motorbike2"/>
    <trip id="mx_303" depart="478.74" from="295408460#2" to="295408461#10" type="motorbike2"/>
    <trip id="mx_304" depart="480.32" from="-828678808" to="694715299#1" type="motorbike2"/>
    <trip id="mx_305" depart="481.90" from="302739240#3" to="408161672#0" type="motorbike2"/>
    <trip id="mx_306" depart="483.48" from="693111346#0" to="160628085#0" type="motorbike2"/>
    <trip id="mx_307" depart="485.06" from="295408461#0" to="695446623#0" type="motorbike2"/>