<?xml version="1.0" encoding="UTF-8"?>
<trips>
    <trip id="ma_0" depart="0.00" from="1034028677#1" to="-676494208" type="motorbike" />
    
    <trip id="mx_0" depart="0.00" from="624455965#0" to="910359052#7" type="motorbike2" />
    
    <trip id="ca_0" depart="0.00" from="372467090#0" to="295408452#8" type="car" />
    
    <trip id="sv_0" depart="0.00" from="-828678874#0" to="828724767#0" type="car_suv" />
    
    <trip id="tx_0" depart="0.00" from="694583900#0" to="695502614" type="taxi" />
    
    <trip id="bs_0" depart="0.00" from="694598419#1-AddedOnRampEdge" to="1280089201#1" type="bus" />
    
    <trip id="tk_0" depart="0.00" from="1279915921" to="1280614485" type="truck" />
    
    <trip id="dv_0" depart="0.00" from="35950897#10" to="295408461#5" type="delivery" />
    
    <trip id="ma_1" depart="0.40" from="-118672606#0" to="408161672#0" type="motorbike" />
    
    <trip id="mx_1" depart="0.78" from="295408462#0" to="118567886#0" type="motorbike2" />
    
    <trip id="ma_2" depart="0.80" from="695025562#0" to="676453142#1" type="motorbike" />
    
    <trip id="ma_3" depart="1.20" from="695502614" to="828678867" type="motorbike" />
    
    <trip id="ca_1" depart="1.50" from="35950882#3" to="118672444#0" type="car" />
    
    <trip id="mx_2" depart="1.56" from="-828724731" to="35950925#9" type="motorbike2" />
    
    <trip id="ma_4" depart="1.60" from="964171425#0" to="302751282-AddedOnRampEdge" type="motorbike" />
    
    <trip id="ma_5" depart="2.00" from="295128790#4" to="302751285#0" type="motorbike" />
    
    <trip id="mx_3" depart="2.34" from="697200467#0" to="-828678869#1" type="motorbike2" />
    
    <trip id="ma_6" depart="2.40" from="828678826#1" to="-695510008#0" type="motorbike" />
    
    <trip id="ma_7" depart="2.80" from="118567886#0" to="1034028678" type="motorbike" />
    
    <trip id="ca_2" depart="3.00" from="1280219265" to="1280219261" type="car" />
    
    <trip id="mx_4" depart="3.12" from="695504114#1" to="695054805#1" type="motorbike2" />
    
    <trip id="ma_8" depart="3.20" from="35950883#7" to="295408452#1" type="motorbike" />
    
    <trip id="ma_9" depart="3.60" from="1282340736" to="694774375#0" type="motorbike" />
    
    <trip id="sv_1" depart="3.60" from="964171425#4" to="302751295#32" type="car_suv" />
    
    <trip id="tx_1" depart="3.60" from="673151196" to="302751282" type="taxi" />
    
    <trip id="mx_5" depart="3.90" from="1279915921" to="-676712671" type="motorbike2" />
    
    <trip id="ma_10" depart="4.00" from="118673929#0" to="910359052#5" type="motorbike" />
    
    <trip id="ma_11" depart="4.40" from="295408459#5" to="118672606#6" type="motorbike" />
    
    <trip id="ca_3" depart="4.50" from="35950897#0" to="696168834#0" type="car" />
    
    <trip id="bs_1" depart="4.50" from="694775628#2" to="1280219259#1" type="bus" />
    
    <trip id="mx_6" depart="4.68" from="-828724683" to="-35950959#1" type="motorbike2" />
    
    <trip id="ma_12" depart="4.80" from="118573606#0" to="-118570168#9" type="motorbike" />
    
    <trip id="ma_13" depart="5.20" from="-118570164#2" to="1034028676#1" type="motorbike" />
    
    <trip id="mx_7" depart="5.46" from="295408464#0-AddedOffRampEdge" to="408161670#27" type="motorbike2" />
    
    <trip id="ma_14" depart="5.60" from="693885803#26" to="694598419#1" type="motorbike" />
    
    <trip id="ma_15" depart="6.00" from="-302751295#12" to="199383481-AddedOnRampEdge" type="motorbike" />
    
    <trip id="ca_4" depart="6.00" from="698936203#7" to="1280219260#0" type="car" />
    
    <trip id="tk_1" depart="6.00" from="1034028678" to="694601892" type="truck" />
    
    <trip id="dv_1" depart="6.00" from="693885802#2" to="-828678810#0" type="delivery" />
    
    <trip id="mx_8" depart="6.24" from="-695446623#1" to="779462187#1" type="motorbike2" />
    
    <trip id="ma_16" depart="6.40" from="-372466116#1" to="1034028677#0" type="motorbike" />
    
    <trip id="ma_17" depart="6.80" from="695504114#0" to="35950897#13" type="motorbike" />
    
    <trip id="mx_9" depart="7.02" from="828724755#0" to="295128790#0" type="motorbike2" />
    
    <trip id="ma_18" depart="7.20" from="35950897#10" to="-828724764#0" type="motorbike" />
    
    <trip id="sv_2" depart="7.20" from="689583171#7" to="-828724754#0" type="car_suv" />
    
    <trip id="tx_2" depart="7.20" from="695496039#3" to="695040552#1" type="taxi" />
    
    <trip id="ca_5" depart="7.50" from="694830397" to="160628085#2" type="car" />
    
    <trip id="ma_19" depart="7.60" from="300947940" to="118570163#1" type="motorbike" />
    
    <trip id="mx_10" depart="7.80" from="673151142#3" to="295408465#1" type="motorbike2" />
    
    <trip id="ma_20" depart="8.00" from="828724710" to="295408459#5" type="motorbike" />
    
    <trip id="ma_21" depart="8.40" from="302751284#0" to="295408452#6" type="motorbike" />
    
    <trip id="mx_11" depart="8.58" from="828724697#0" to="828678862#2" type="motorbike2" />
    
    <trip id="ma_22" depart="8.80" from="372220804#32" to="118570167#1" type="motorbike" />
    
    <trip id="ca_6" depart="9.00" from="1034028677#0" to="1279915919" type="car" />
    
    <trip id="bs_2" depart="9.00" from="695040552#1" to="1280089201#1" type="bus" />
    
    <trip id="ma_23" depart="9.20" from="-562701505" to="1034028675#0" type="motorbike" />
    
    <trip id="mx_12" depart="9.36" from="-302751295#25" to="35950897#10" type="motorbike2" />
    
    <trip id="ma_24" depart="9.60" from="295449627#0" to="-676450958#0" type="motorbike" />
    
    <trip id="ma_25" depart="10.00" from="1391330070#0" to="1034027336#1" type="motorbike" />
    
    <trip id="mx_13" depart="10.14" from="694830397" to="910359052#0" type="motorbike2" />
    
    <trip id="ma_26" depart="10.40" from="-561474235" to="295449628" type="motorbike" />
    
    <trip id="ca_7" depart="10.50" from="1280089201#0" to="696169688" type="car" />
    
    <trip id="ma_27" depart="10.80" from="1280089201#0" to="695446625#3" type="motorbike" />
    
    <trip id="sv_3" depart="10.80" from="1165643361" to="-828678908" type="car_suv" />
    
    <trip id="tx_3" depart="10.80" from="694830397" to="118673921#4" type="taxi" />
    
    <trip id="mx_14" depart="10.92" from="295408452#16-AddedOffRampEdge" to="295408452#1" type="motorbike2" />
    
    <trip id="ma_28" depart="11.20" from="695510007#0" to="-562701502#2" type="motorbike" />
    
    <trip id="ma_29" depart="11.60" from="-118688839#2" to="695496039#2" type="motorbike" />
    
    <trip id="mx_15" depart="11.70" from="405113894" to="408161670#0" type="motorbike2" />
    
    <trip id="ma_30" depart="12.00" from="-39368999#9" to="695446625#3" type="motorbike" />
    
    <trip id="ca_8" depart="12.00" from="-641397124" to="118566873#2" type="car" />
    
    <trip id="tk_2" depart="12.00" from="1280089201#2" to="118570159#0" type="truck" />
    
    <trip id="dv_2" depart="12.00" from="694830396" to="-372464935#3" type="delivery" />
    
    <trip id="ma_31" depart="12.40" from="408161670#22" to="295449627#5" type="motorbike" />
    
    <trip id="mx_16" depart="12.48" from="1280219260#1" to="295408465#1" type="motorbike2" />
    
    <trip id="ma_32" depart="12.80" from="964171425#5" to="295449627#4" type="motorbike" />
    
    <trip id="ma_33" depart="13.20" from="560329311" to="828678822#0" type="motorbike" />
    
    <trip id="mx_17" depart="13.26" from="695490087#1" to="643237807#2" type="motorbike2" />
    
    <trip id="ca_9" depart="13.50" from="1279915919" to="160628085#0" type="car" />
    
    <trip id="bs_3" depart="13.50" from="-35950959#11" to="910359052#3" type="bus" />
    
    <trip id="ma_34" depart="13.60" from="295408452#16-AddedOffRampEdge" to="695025562#0" type="motorbike" />
    
    <trip id="ma_35" depart="14.00" from="694583900#0" to="295408461#4" type="motorbike" />
    
    <trip id="mx_18" depart="14.04" from="-118673886#0" to="693885802#0" type="motorbike2" />
    
    <trip id="ma_36" depart="14.40" from="35950897#6" to="-698936202#1" type="motorbike" />
    
    <trip id="sv_4" depart="14.40" from="-828678857" to="-1467236399" type="car_suv" />
    
    <trip id="tx_4" depart="14.40" from="1165643361" to="35950897#13" type="taxi" />
    
    <trip id="ma_37" depart="14.80" from="694775628#0" to="-828678814#7" type="motorbike" />
    
    <trip id="mx_19" depart="14.82" from="697200467#10" to="302751295#1" type="motorbike2" />
    
    <trip id="ca_10" depart="15.00" from="-697870570" to="-828678877" type="car" />
    
    <trip id="ma_38" depart="15.20" from="695504114#0" to="-405962816#0" type="motorbike" />
    
    <trip id="ma_39" depart="15.60" from="1034028675#0" to="695490086#1" type="motorbike" />
    
    <trip id="mx_20" depart="15.60" from="1280614504#0" to="694774375#0" type="motorbike2" />
    
    <trip id="ma_40" depart="16.00" from="372220804#0" to="302751284#0" type="motorbike" />
    
    <trip id="mx_21" depart="16.38" from="295408463#1" to="693885803#17" type="motorbike2" />
    
    <trip id="ma_41" depart="16.40" from="1282340731" to="-828678874#1" type="motorbike" />
    
    <trip id="ca_11" depart="16.50" from="1282340731" to="295408452#16-AddedOffRampEdge" type="car" />
    
    <trip id="ma_42" depart="16.80" from="-35950942#2" to="408161670#20" type="motorbike" />
    
    <trip id="mx_22" depart="17.16" from="964171425#5" to="302751284#3" type="motorbike2" />
    
    <trip id="ma_43" depart="17.20" from="676714129" to="295408465#2" type="motorbike" />
    
    <trip id="ma_44" depart="17.60" from="408161670#18" to="694598419#1" type="motorbike" />
    
    <trip id="mx_23" depart="17.94" from="408161670#20" to="295128790#4" type="motorbike2" />
    
    <trip id="ma_45" depart="18.00" from="695030266" to="35950925#3" type="motorbike" />
    
    <trip id="ca_12" depart="18.00" from="676453139#1" to="828724770" type="car" />
    
    <trip id="sv_5" depart="18.00" from="295408452#9" to="694598419#1" type="car_suv" />
    
    <trip id="tx_5" depart="18.00" from="689583171#3" to="160628085#2" type="taxi" />
    
    <trip id="bs_4" depart="18.00" from="-118573597" to="-39368999#8" type="bus" />
    
    <trip id="tk_3" depart="18.00" from="295408452#0" to="642050078#0" type="truck" />
    
    <trip id="dv_3" depart="18.00" from="910359052#5" to="910359052#7" type="delivery" />
    
    <trip id="ma_46" depart="18.40" from="295408452#16-AddedOffRampEdge" to="-39354228#6" type="motorbike" />
    
    <trip id="mx_24" depart="18.72" from="-118673929#0" to="-343237264#2" type="motorbike2" />
    
    <trip id="ma_47" depart="18.80" from="295408459#0" to="695502611#1" type="motorbike" />
    
    <trip id="ma_48" depart="19.20" from="295408459#5" to="765351891#0" type="motorbike" />
    
    <trip id="mx_25" depart="19.50" from="-1458964293" to="-561667993" type="motorbike2" />
    
    <trip id="ca_13" depart="19.50" from="295408460#3" to="160628085#0" type="car" />
    
    <trip id="ma_49" depart="19.60" from="697200467#4" to="295408459#7" type="motorbike" />
    
    <trip id="ma_50" depart="20.00" from="894924691" to="295408459#5" type="motorbike" />
    
    <trip id="mx_26" depart="20.28" from="694583900#0-AddedOffRampEdge" to="-765351891#0" type="motorbike2" />
    
    <trip id="ma_51" depart="20.40" from="1282340772" to="295408452#6" type="motorbike" />
    
    <trip id="ma_52" depart="20.80" from="408161670#27" to="295408452#16" type="motorbike" />
    
    <trip id="ca_14" depart="21.00" from="372220804#1" to="641397122#4" type="car" />
    
    <trip id="mx_27" depart="21.06" from="695502613" to="689583176#5" type="motorbike2" />
    
    <trip id="ma_53" depart="21.20" from="695040105#0" to="372220804#22" type="motorbike" />
    
    <trip id="ma_54" depart="21.60" from="694774375#0" to="698936203#3" type="motorbike" />
    
    <trip id="sv_6" depart="21.60" from="676467950" to="693885803#27" type="car_suv" />
    
    <trip id="tx_6" depart="21.60" from="295408452#6" to="695040552#0" type="taxi" />
    
    <trip id="mx_28" depart="21.84" from="964171425#0" to="321069061" type="motorbike2" />
    
    <trip id="ma_55" depart="22.00" from="694583900#0-AddedOffRampEdge" to="1034027336#0" type="motorbike" />
    
    <trip id="ma_56" depart="22.40" from="1280219265" to="295408465#2" type="motorbike" />
    
    <trip id="ca_15" depart="22.50" from="35950897#15" to="35950868#30" type="car" />
    
    <trip id="bs_5" depart="22.50" from="1282340739" to="118567494" type="bus" />
    
    <trip id="mx_29" depart="22.62" from="295128790#0" to="118567494" type="motorbike2" />
    
    <trip id="ma_57" depart="22.80" from="35950897#0" to="408161670#24" type="motorbike" />
    
    <trip id="ma_58" depart="23.20" from="641397122#4" to="295408461#4" type="motorbike" />
    
    <trip id="mx_30" depart="23.40" from="-118673921#3" to="35950925#0" type="motorbike2" />
    
    <trip id="ma_59" depart="23.60" from="-118570181#1" to="828678874#0" type="motorbike" />
    
    <trip id="ma_60" depart="24.00" from="1280089222" to="199383481-AddedOnRampEdge" type="motorbike" />
    
    <trip id="ca_16" depart="24.00" from="695040552#0" to="295449627#0" type="car" />
    
    <trip id="tk_4" depart="24.00" from="295128790#4" to="295408465#1" type="truck" />
    
    <trip id="dv_4" depart="24.00" from="689583171#7" to="-372220804#29" type="delivery" />
    
    <trip id="mx_31" depart="24.18" from="-39368999#0" to="-828724735" type="motorbike2" />
    
    <trip id="ma_61" depart="24.40" from="118570175" to="1282340736" type="motorbike" />
    
    <trip id="ma_62" depart="24.80" from="1210918872#1" to="118566873#1" type="motorbike" />
    
    <trip id="mx_32" depart="24.96" from="910359052#7" to="295408461#4" type="motorbike2" />
    
    <trip id="ma_63" depart="25.20" from="828678788#2" to="1279915896#1" type="motorbike" />
    
    <trip id="sv_7" depart="25.20" from="673151142#3" to="695446625#3" type="car_suv" />
    
    <trip id="tx_7" depart="25.20" from="695510007#1" to="694601892" type="taxi" />
    
    <trip id="ca_17" depart="25.50" from="1279915921" to="696169688" type="car" />
    
    <trip id="ma_64" depart="25.60" from="697200467#10" to="-39368999#12" type="motorbike" />
    
    <trip id="mx_33" depart="25.74" from="39368999#17" to="-373009311#1" type="motorbike2" />
    
    <trip id="ma_65" depart="26.00" from="-828724697#0" to="676461674" type="motorbike" />
    
    <trip id="ma_66" depart="26.40" from="689583171#3" to="695504114#0" type="motorbike" />
    
    <trip id="mx_34" depart="26.52" from="39368999#4" to="673151142#4" type="motorbike2" />
    
    <trip id="ma_67" depart="26.80" from="118673921#2" to="693416427" type="motorbike" />
    
    <trip id="ca_18" depart="27.00" from="-676438752#0" to="695510007#1" type="car" />
    
    <trip id="bs_6" depart="27.00" from="118672606#1" to="-641397118" type="bus" />
    
    <trip id="ma_68" depart="27.20" from="693885804#0" to="-256672293" type="motorbike" />
    
    <trip id="mx_35" depart="27.30" from="295408464#0-AddedOffRampEdge" to="302751295#26" type="motorbike2" />
    
    <trip id="ma_69" depart="27.60" from="694583900#0-AddedOffRampEdge" to="295408462#0" type="motorbike" />
    
    <trip id="ma_70" depart="28.00" from="-828678745#1" to="910359052#7" type="motorbike" />
    
    <trip id="mx_36" depart="28.08" from="-295386152#7" to="118672606#7" type="motorbike2" />
    
    <trip id="ma_71" depart="28.40" from="-35950883#8" to="295408461#10" type="motorbike" />
    
    <trip id="ca_19" depart="28.50" from="295408465#2-AddedOnRampEdge" to="295408465#2-AddedOnRampEdge" type="car" />
    
    <trip id="ma_72" depart="28.80" from="697200467#4" to="695040552#0" type="motorbike" />
    
    <trip id="sv_8" depart="28.80" from="-1255581684" to="828678859" type="car_suv" />
    
    <trip id="tx_8" depart="28.80" from="-765351891#0" to="295408461#5" type="taxi" />
    
    <trip id="mx_37" depart="28.86" from="295408466#1" to="-35950882#9" type="motorbike2" />
    
    <trip id="ma_73" depart="29.20" from="118570175" to="-828678750#0" type="motorbike" />
    
    <trip id="ma_74" depart="29.60" from="1034028675#0" to="695025562#0" type="motorbike" />
    
    <trip id="mx_38" depart="29.64" from="910359052#0" to="295408461#5" type="motorbike2" />
    
    <trip id="ma_75" depart="30.00" from="1034028676#0" to="160628085#2" type="motorbike" />
    
    <trip id="ca_20" depart="30.00" from="694601892" to="1034028676#0" type="car" />
    
    <trip id="tk_5" depart="30.00" from="695446625#3" to="199383481-AddedOnRampEdge" type="truck" />
    
    <trip id="dv_5" depart="30.00" from="828724699#0" to="295408452#11" type="delivery" />
    
    <trip id="ma_76" depart="30.40" from="118570174#2" to="118672606#9" type="motorbike" />
    
    <trip id="mx_39" depart="30.42" from="118570181#6" to="35950868#34" type="motorbike2" />
    
    <trip id="ma_77" depart="30.80" from="295408463#0" to="964171425#5" type="motorbike" />
    
    <trip id="ma_78" depart="31.20" from="828678801#1" to="562709015#2" type="motorbike" />
    
    <trip id="mx_40" depart="31.20" from="-118672607#3" to="295408468#0" type="motorbike2" />
    
    <trip id="ca_21" depart="31.50" from="-828724749#0" to="302751295#12" type="car" />
    
    <trip id="bs_7" depart="31.50" from="1210918872#1" to="-302751295#20" type="bus" />
    
    <trip id="ma_79" depart="31.60" from="1282340731" to="35950897#15" type="motorbike" />
    
    <trip id="mx_41" depart="31.98" from="-302751295#5" to="-704621733#2" type="motorbike2" />
    
    <trip id="ma_80" depart="32.00" from="-39368999#5" to="1280219257#0" type="motorbike" />
    
    <trip id="ma_81" depart="32.40" from="910359052#0" to="1034028678" type="motorbike" />
    
    <trip id="sv_9" depart="32.40" from="642047428" to="910359052#5" type="car_suv" />
    
    <trip id="tx_9" depart="32.40" from="-39368999#14" to="372464935#2" type="taxi" />
    
    <trip id="mx_42" depart="32.76" from="-295386152#9" to="694774375#0" type="motorbike2" />
    
    <trip id="ma_82" depart="32.80" from="694830397" to="1280089201#2" type="motorbike" />
    
    <trip id="ca_22" depart="33.00" from="408161670#18" to="779462187#1" type="car" />
    
    <trip id="ma_83" depart="33.20" from="695025562#0" to="118570175" type="motorbike" />
    
    <trip id="mx_43" depart="33.54" from="1282340737" to="828678846" type="motorbike2" />
    
    <trip id="ma_84" depart="33.60" from="695496042#0" to="1034028677#0" type="motorbike" />
    
    <trip id="ma_85" depart="34.00" from="295408464#0" to="1280614485" type="motorbike" />
    
    <trip id="mx_44" depart="34.32" from="-118566872#3" to="408161670#20" type="motorbike2" />
    
    <trip id="ma_86" depart="34.40" from="-35950864#2" to="295449627#0" type="motorbike" />
    
    <trip id="ca_23" depart="34.50" from="689583171#0" to="1446454670" type="car" />
    
    <trip id="ma_87" depart="34.80" from="295408464#0-AddedOffRampEdge" to="828678827" type="motorbike" />
    
    <trip id="mx_45" depart="35.10" from="295408464#0-AddedOffRampEdge" to="828724786" type="motorbike2" />
    
    <trip id="ma_88" depart="35.20" from="295408460#2" to="693416739#3" type="motorbike" />
    
    <trip id="ma_89" depart="35.60" from="695502611#1" to="408161670#25" type="motorbike" />
    
    <trip id="mx_46" depart="35.88" from="118672619#3" to="408161672#1" type="motorbike2" />
    
    <trip id="ma_90" depart="36.00" from="910359052#9" to="-828724716" type="motorbike" />
    
    <trip id="ca_24" depart="36.00" from="1282340735" to="695025562#0" type="car" />
    
    <trip id="sv_10" depart="36.00" from="160628085#1" to="372220804#1" type="car_suv" />
    
    <trip id="tx_10" depart="36.00" from="35950868#16" to="295408465#1" type="taxi" />
    
    <trip id="bs_8" depart="36.00" from="676465938#0" to="1280614505#1" type="bus" />
    
    <trip id="tk_6" depart="36.00" from="964171425#0" to="695025560#0" type="truck" />
    
    <trip id="dv_6" depart="36.00" from="295408460#3" to="39368999#10" type="delivery" />
    
    <trip id="ma_91" depart="36.40" from="828678749#1" to="199383481" type="motorbike" />
    
    <trip id="mx_47" depart="36.66" from="-295386152#7" to="673151142#4" type="motorbike2" />
    
    <trip id="ma_92" depart="36.80" from="302751284#3" to="295449627#4" type="motorbike" />
    
    <trip id="ma_93" depart="37.20" from="1034028677#1" to="694598419#1-AddedOnRampEdge" type="motorbike" />
    
    <trip id="mx_48" depart="37.44" from="295128790#4" to="1280614485" type="motorbike2" />
    
    <trip id="ca_25" depart="37.50" from="35950925#3" to="694601892" type="car" />
    
    <trip id="ma_94" depart="37.60" from="295128790#0" to="694598419#1-AddedOnRampEdge" type="motorbike" />
    
    <trip id="ma_95" depart="38.00" from="372220804#16" to="118570167#0" type="motorbike" />
    
    <trip id="mx_49" depart="38.22" from="375341805" to="828678791" type="motorbike2" />
    
    <trip id="ma_96" depart="38.40" from="-118575975#3" to="695496039#3" type="motorbike" />
    
    <trip id="ma_97" depart="38.80" from="695502613" to="118688839#2" type="motorbike" />
    
    <trip id="mx_50" depart="39.00" from="1280614485" to="302751282-AddedOnRampEdge" type="motorbike2" />
    
    <trip id="ca_26" depart="39.00" from="695040105#0" to="295408461#7" type="car" />
    
    <trip id="ma_98" depart="39.20" from="694598419#1-AddedOnRampEdge" to="1282340716" type="motorbike" />
    
    <trip id="ma_99" depart="39.60" from="828678837#0" to="408161670#22" type="motorbike" />
    
    <trip id="sv_11" depart="39.60" from="-695446623#1" to="118570151#0" type="car_suv" />
    
    <trip id="tx_11" depart="39.60" from="-828724746" to="695490087#1" type="taxi" />
    
    <trip id="mx_51" depart="39.78" from="1282340717#1" to="-302751295#16" type="motorbike2" />
    
    <trip id="ma_100" depart="40.00" from="695504114#0" to="295408452#6" type="motorbike" />
    
    <trip id="ma_101" depart="40.40" from="1280614485" to="160628085#1" type="motorbike" />
    
    <trip id="ca_27" depart="40.50" from="694775628#0" to="695510007#1" type="car" />
    
    <trip id="bs_9" depart="40.50" from="295408452#16-AddedOffRampEdge" to="695295265#0" type="bus" />
    
    <trip id="mx_52" depart="40.56" from="695025560#0" to="1280614485" type="motorbike2" />
    
    <trip id="ma_102" depart="40.80" from="1280219260#1" to="1034027336#1" type="motorbike" />
    
    <trip id="ma_103" depart="41.20" from="694583900#0-AddedOffRampEdge" to="779462187#1" type="motorbike" />
    
    <trip id="mx_53" depart="41.34" from="-118673886#0" to="697200467#1" type="motorbike2" />
    
    <trip id="ma_104" depart="41.60" from="-828724765" to="1280219258#0" type="motorbike" />
    
    <trip id="ma_105" depart="42.00" from="295408452#0" to="295408462#0" type="motorbike" />
    
    <trip id="ca_28" depart="42.00" from="695496039#3" to="697200467#0" type="car" />
    
    <trip id="tk_7" depart="42.00" from="695040105#3" to="295408461#5" type="truck" />
    
    <trip id="dv_7" depart="42.00" from="1034028675#6" to="1210918873#1" type="delivery" />
    
    <trip id="mx_54" depart="42.12" from="689583171#15" to="295408467" type="motorbike2" />
    
    <trip id="ma_106" depart="42.40" from="35950883#1" to="302751282-AddedOnRampEdge" type="motorbike" />
    
    <trip id="ma_107" depart="42.80" from="695040105#5" to="695510007#1" type="motorbike" />
    
    <trip id="mx_55" depart="42.90" from="1034028677#1" to="295408468#0" type="motorbike2" />
    
    <trip id="ma_108" depart="43.20" from="-295449622#2" to="1282340736" type="motorbike" />
    
    <trip id="sv_12" depart="43.20" from="964171425#6" to="-118570167#0" type="car_suv" />
    
    <trip id="tx_12" depart="43.20" from="-1124338482" to="-118672607#0" type="taxi" />
    
    <trip id="ca_29" depart="43.50" from="295449627#4" to="697200467#11" type="car" />
    
    <trip id="ma_109" depart="43.60" from="1280219258#0" to="408161672#1" type="motorbike" />
    
    <trip id="mx_56" depart="43.68" from="1279915900#0" to="-118570168#3" type="motorbike2" />
    
    <trip id="ma_110" depart="44.00" from="1280089222" to="295449625#0" type="motorbike" />
    
    <trip id="ma_111" depart="44.40" from="-894924691" to="1279915919" type="motorbike" />
    
    <trip id="mx_57" depart="44.46" from="694600787" to="295128790#0" type="motorbike2" />
    
    <trip id="ma_112" depart="44.80" from="964171425#0" to="695295267#0" type="motorbike" />
    
    <trip id="ca_30" depart="45.00" from="118570168#2" to="1282340739" type="car" />
    
    <trip id="bs_10" depart="45.00" from="694598419#1-AddedOnRampEdge" to="118575973#1" type="bus" />
    
    <trip id="ma_113" depart="45.20" from="1391330070#6" to="695446625#1" type="motorbike" />
    
    <trip id="mx_58" depart="45.24" from="694772625#0" to="695040102#0" type="motorbike2" />
    
    <trip id="ma_114" depart="45.60" from="-641397119#1" to="295408462#8" type="motorbike" />
    
    <trip id="ma_115" depart="46.00" from="910359052#0" to="295408465#2" type="motorbike" />
    
    <trip id="mx_59" depart="46.02" from="642396065" to="-302751295#3" type="motorbike2" />
    
    <trip id="ma_116" depart="46.40" from="779462187#1" to="199383481-AddedOnRampEdge" type="motorbike" />
    
    <trip id="ca_31" depart="46.50" from="-35950864#5" to="695502613" type="car" />
    
    <trip id="ma_117" depart="46.80" from="1034028675#6" to="1280219260#1" type="motorbike" />
    
    <trip id="mx_60" depart="46.80" from="-35950868#37" to="694600787" type="motorbike2" />
    
    <trip id="sv_13" depart="46.80" from="695502613" to="160628085#0" type="car_suv" />
    
    <trip id="tx_13" depart="46.80" from="1280089222" to="-372466116#0" type="taxi" />
    
    <trip id="ma_118" depart="47.20" from="1280089222" to="-641092773" type="motorbike" />
    
    <trip id="mx_61" depart="47.58" from="828678745#0" to="695446625#1" type="motorbike2" />
    
    <trip id="ma_119" depart="47.60" from="695490087#1" to="1391330070#0" type="motorbike" />
    
    <trip id="ma_120" depart="48.00" from="697200467#11" to="828724711#0" type="motorbike" />
    
    <trip id="ca_32" depart="48.00" from="-372466120#0" to="295408460#3" type="car" />
    
    <trip id="tk_8" depart="48.00" from="697200467#11" to="694598419#1" type="truck" />
    
    <trip id="dv_8" depart="48.00" from="828724715" to="295408452#16-AddedOffRampEdge" type="delivery" />
    
    <trip id="mx_62" depart="48.36" from="295408464#0" to="118555049#15" type="motorbike2" />
    
    <trip id="ma_121" depart="48.40" from="-828724713" to="695490087#1" type="motorbike" />
    
    <trip id="ma_122" depart="48.80" from="689583171#0" to="828724705#0" type="motorbike" />
    
    <trip id="mx_63" depart="49.14" from="118575976#0" to="35950897#15" type="motorbike2" />
    
    <trip id="ma_123" depart="49.20" from="694830397" to="697200467#11" type="motorbike" />
    
    <trip id="ca_33" depart="49.50" from="694830396" to="694594970#0" type="car" />
    
    <trip id="bs_11" depart="49.50" from="1280614484" to="1279915921" type="bus" />
    
    <trip id="ma_124" depart="49.60" from="295408452#7" to="1034028675#6" type="motorbike" />
    
    <trip id="mx_64" depart="49.92" from="-673151198#0" to="779462187#1" type="motorbike2" />
    
    <trip id="ma_125" depart="50.00" from="-641397123#1" to="302737424#1" type="motorbike" />
    
    <trip id="ma_126" depart="50.40" from="302751284#0" to="1280219261" type="motorbike" />
    
    <trip id="sv_14" depart="50.40" from="-641109023#3" to="321069049#0" type="car_suv" />
    
    <trip id="tx_14" depart="50.40" from="695040105#5" to="697200467#9" type="taxi" />
    
    <trip id="mx_65" depart="50.70" from="1282340737" to="408161670#13" type="motorbike2" />
    
    <trip id="ma_127" depart="50.80" from="35950897#15" to="295408452#6" type="motorbike" />
    
    <trip id="ca_34" depart="51.00" from="295408459#4" to="-405962812#0" type="car" />
    
    <trip id="ma_128" depart="51.20" from="39368999#2" to="676438752#1" type="motorbike" />
    
    <trip id="mx_66" depart="51.48" from="910359052#9" to="302751284#3" type="motorbike2" />
    
    <trip id="ma_129" depart="51.60" from="295128790#4" to="295408459#7" type="motorbike" />
    
    <trip id="ma_130" depart="52.00" from="1280089201#2" to="-561474235" type="motorbike" />
    
    <trip id="mx_67" depart="52.26" from="698046188#1" to="828678873" type="motorbike2" />
    
    <trip id="ma_131" depart="52.40" from="295408463#1" to="-118672619#1" type="motorbike" />
    
    <trip id="ca_35" depart="52.50" from="-118673921#3" to="-642356081#1" type="car" />
    
    <trip id="ma_132" depart="52.80" from="695510007#0" to="-828724786" type="motorbike" />
    
    <trip id="mx_68" depart="53.04" from="1280219265" to="695446625#3" type="motorbike2" />
    
    <trip id="ma_133" depart="53.20" from="-676453141" to="-302751295#32" type="motorbike" />
    
    <trip id="ma_134" depart="53.60" from="1282340719" to="1279915921" type="motorbike" />
    
    <trip id="mx_69" depart="53.82" from="1355319663" to="1282340736" type="motorbike2" />
    
    <trip id="ma_135" depart="54.00" from="694600787" to="641077473#1" type="motorbike" />
    
    <trip id="ca_36" depart="54.00" from="694598419#1" to="694598419#0" type="car" />
    
    <trip id="sv_15" depart="54.00" from="697200467#11" to="35950883#9" type="car_suv" />
    
    <trip id="tx_15" depart="54.00" from="295128790#0" to="1280089201#0" type="taxi" />
    
    <trip id="bs_12" depart="54.00" from="695446625#1" to="372220804#5" type="bus" />
    
    <trip id="tk_9" depart="54.00" from="695295267#0" to="-372220804#32" type="truck" />
    
    <trip id="dv_9" depart="54.00" from="35950897#6" to="828678912#3" type="delivery" />
    
    <trip id="ma_136" depart="54.40" from="-1447078728#0" to="828724694#0" type="motorbike" />
    