<?xml version="1.0" encoding="UTF-8"?>

<!-- generated on 2026-03-16 23:17:21.798514 by Eclipse SUMO randomTrips.py v1.26.0
<configuration>
    <net-file value="F:\Newgeneration\FlowMindAI\sumo\danang\danang.net.xml"/>
    <additional-files value="F:\Newgeneration\FlowMindAI\sumo\danang\danang.vtypes.xml"/>
    <weights-prefix value="F:\Newgeneration\FlowMindAI\sumo\danang\danang.weights"/>
    <output-trip-file value="F:\Newgeneration\FlowMindAI\sumo\danang\danang.mx_.trips.xml"/>
    <prefix value="mx_"/>
    <trip-attributes value="type=&quot;motorbike2&quot;"/>
    <fringe-factor value="5"/>
    <random value="True"/>
    <remove-loops value="True"/>
    <period value="1.57"/>
</configuration>
-->

<routes xmlns:xsi="http://www.w3.org/2001/XMLSchema-instance" xsi:noNamespaceSchemaLocation="http://sumo.dlr.de/xsd/routes_file.xsd">
    <trip id="mx_0" depart="0.00" from="408161670#20" to="694598419#1-AddedOnRampEdge" type="motorbike2"/>
    <trip id="mx_1" depart="1.57" from="295408459#1" to="295408462#10" type="motorbike2"/>
    <trip id="mx_2" depart="3.14" from="295449627#5" to="295408477" type="motorbike2"/>
    <trip id="mx_3" depart="4.71" from="694775628#2" to="696168834#0" type="motorbike2"/>
    <trip id="mx_4" depart="6.28" from="302751286#2" to="1165643358" type="motorbike2"/>
    <trip id="mx_5" depart="7.85" from="828678817#2" to="693885804#0" type="motorbike2"/>
    <trip id="mx_6" depart="9.42" from="964171425#4" to="689583171#12" type="motorbike2"/>
    <trip id="mx_7" depart="10.99" from="295449627#4" to="35950925#7" type="motorbike2"/>
    <trip id="mx_8" depart="12.56" from="1034028677#0" to="1280089222" type="motorbike2"/>
    <trip id="mx_9" depart="14.13" from="295408452#16-AddedOffRampEdge" to="1280089201#0" type="motorbike2"/>
    <trip id="mx_10" depart="15.70" from="295408452#8" to="-118567892" type="motorbike2"/>
    <trip id="mx_11" depart="17.27" from="-118555049#17" to="344692547#3" type="motorbike2"/>
    <trip id="mx_12" depart="18.84" from="372467087#2" to="295408452#16-AddedOffRampEdge" type="motorbike2"/>
    <trip id="mx_13" depart="20.41" from="372220804#33" to="295408452#16-AddedOffRampEdge" type="motorbike2"/>
    <trip id="mx_14" depart="21.98" from="689583171#11" to="910359052#3" type="motorbike2"/>
    <trip id="mx_15" depart="23.55" from="695446625#1" to="-118673937#3" type="motorbike2"/>
    <trip id="mx_16" depart="25.12" from="408161670#27" to="695025562#0" type="motorbike2"/>
    <trip id="mx_17" depart="26.69" from="-35950882#5" to="295408465#2-AddedOnRampEdge" type="motorbike2"/>
    <trip id="mx_18" depart="28.26" from="295408463#1" to="828678786" type="motorbike2"/>
    <trip id="mx_19" depart="29.83" from="-39368999#9" to="1280219266" type="motorbike2"/>
    <trip id="mx_20" depart="31.40" from="695040105#0" to="-372464927" type="motorbike2"/>
    <trip id="mx_21" depart="32.97" from="295408459#1" to="-302751295#11" type="motorbike2"/>
    <trip id="mx_22" depart="34.54" from="-828724711#0" to="-673151196" type="motorbike2"/>
    <trip id="mx_23" depart="36.11" from="1280614485" to="1034028675#0" type="motorbike2"/>
    <trip id="mx_24" depart="37.68" from="694583900#0-AddedOffRampEdge" to="695490087#1" type="motorbike2"/>
    <trip id="mx_25" depart="39.25" from="695504114#1" to="695040105#3" type="motorbike2"/>
    <trip id="mx_26" depart="40.82" from="302739242#1" to="695446625#1" type="motorbike2"/>
    <trip id="mx_27" depart="42.39" from="295408452#16-AddedOffRampEdge" to="408161672#0" type="motorbike2"/>
    <trip id="mx_28" depart="43.96" from="295449627#5" to="693885804#0" type="motorbike2"/>
    <trip id="mx_29" depart="45.53" from="1282340718" to="-118673921#1" type="motorbike2"/>
    <trip id="mx_30" depart="47.10" from="695490087#1" to="295408461#5" type="motorbike2"/>
    <trip id="mx_31" depart="48.67" from="39368999#3" to="-39368999#14" type="motorbike2"/>
    <trip id="mx_32" depart="50.24" from="35950864#24" to="1280219259#1" type="motorbike2"/>
    <trip id="mx_33" depart="51.81" from="695025560#0" to="408161670#25" type="motorbike2"/>
    <trip id="mx_34" depart="53.38" from="295408459#0" to="408161672#0" type="motorbike2"/>
    <trip id="mx_35" depart="54.95" from="1280219259#0" to="779462187#0" type="motorbike2"/>
    <trip id="mx_36" depart="56.52" from="372220804#2" to="695040552#0" type="motorbike2"/>
    <trip id="mx_37" depart="58.09" from="1165643361" to="199383481-AddedOnRampEdge" type="motorbike2"/>
    <trip id="mx_38" depart="59.66" from="695496039#2" to="695429325#1" type="motorbike2"/>
    <trip id="mx_39" depart="61.23" from="35950897#10" to="694600787" type="motorbike2"/>
    <trip id="mx_40" depart="62.80" from="-643237805" to="910359052#9" type="motorbike2"/>
    <trip id="mx_41" depart="64.37" from="295408463#1" to="828678903" type="motorbike2"/>
    <trip id="mx_42" depart="65.94" from="295449627#5" to="1280219265" type="motorbike2"/>
    <trip id="mx_43" depart="67.51" from="118570159#8" to="-561913437#4" type="motorbike2"/>
    <trip id="mx_44" depart="69.08" from="1034028675#6" to="910359052#7" type="motorbike2"/>
    <trip id="mx_45" depart="70.65" from="1279915919" to="295408462#1" type="motorbike2"/>
    <trip id="mx_46" depart="72.22" from="694830395#0" to="695025562#0" type="motorbike2"/>
    <trip id="mx_47" depart="73.79" from="641397122#4" to="694598419#1-AddedOnRampEdge" type="motorbike2"/>
    <trip id="mx_48" depart="75.36" from="-828678814#0" to="695496039#3" type="motorbike2"/>
    <trip id="mx_49" depart="76.93" from="697200467#10" to="-118566872#6" type="motorbike2"/>
    <trip id="mx_50" depart="78.50" from="372467090#1" to="694598419#1-AddedOnRampEdge" type="motorbike2"/>
    <trip id="mx_51" depart="80.07" from="694598419#0" to="-118673937#3" type="motorbike2"/>
    <trip id="mx_52" depart="81.64" from="1280089201#0" to="-828724769" type="motorbike2"/>
    <trip id="mx_53" depart="83.21" from="695030266" to="697200467#1" type="motorbike2"/>
    <trip id="mx_54" depart="84.78" from="694830396" to="1034028676#0" type="motorbike2"/>
    <trip id="mx_55" depart="86.35" from="295408459#5" to="295408452#6" type="motorbike2"/>
    <trip id="mx_56" depart="87.92" from="697200467#0" to="1279915900#2" type="motorbike2"/>
    <trip id="mx_57" depart="89.49" from="693330103#0" to="-828678770" type="motorbike2"/>
    <trip id="mx_58" depart="91.06" from="1210918872#1" to="696169688" type="motorbike2"/>
    <trip id="mx_59" depart="92.63" from="408161670#27" to="695040105#3" type="motorbike2"/>
    <trip id="mx_60" depart="94.20" from="-405962815#1" to="828724700#2" type="motorbike2"/>
    <trip id="mx_61" depart="95.77" from="695025560#0" to="828678822#1" type="motorbike2"/>
    <trip id="mx_62" depart="97.34" from="695502613" to="-828678878#0" type="motorbike2"/>
    <trip id="mx_63" depart="98.91" from="676450957" to="-828678802#0" type="motorbike2"/>
    <trip id="mx_64" depart="100.48" from="39368999#1" to="1034028676#2" type="motorbike2"/>
    <trip id="mx_65" depart="102.05" from="-118566872#9" to="302751295#5" type="motorbike2"/>
    <trip id="mx_66" depart="103.62" from="698936203#4" to="408161670#25" type="motorbike2"/>
    <trip id="mx_67" depart="105.19" from="695496039#3" to="295408468#4" type="motorbike2"/>
    <trip id="mx_68" depart="106.76" from="-343237264#0" to="1280219265" type="motorbike2"/>
    <trip id="mx_69" depart="108.33" from="765351891#0" to="676453138#1" type="motorbike2"/>
    <trip id="mx_70" depart="109.90" from="-642475789" to="694594970#0" type="motorbike2"/>
    <trip id="mx_71" depart="111.47" from="694583900#0" to="1280614505#1" type="motorbike2"/>
    <trip id="mx_72" depart="113.04" from="39354228#5" to="-35950864#22" type="motorbike2"/>
    <trip id="mx_73" depart="114.61" from="295449627#4" to="302751282" type="motorbike2"/>
    <trip id="mx_74" depart="116.18" from="295408462#10" to="1391330070#4" type="motorbike2"/>
    <trip id="mx_75" depart="117.75" from="695502611#0" to="-39368999#1" type="motorbike2"/>
    <trip id="mx_76" depart="119.32" from="694830397" to="1280219266" type="motorbike2"/>
    <trip id="mx_77" depart="120.89" from="693416427" to="779462187#1" type="motorbike2"/>
    <trip id="mx_78" depart="122.46" from="295449627#0" to="1418093030" type="motorbike2"/>
    <trip id="mx_79" depart="124.03" from="39368999#17" to="964171425#0" type="motorbike2"/>
    <trip id="mx_80" depart="125.60" from="1280614485" to="118674615#0" type="motorbike2"/>
    <trip id="mx_81" depart="127.17" from="1280614485" to="1034028675#2" type="motorbike2"/>
    <trip id="mx_82" depart="128.74" from="-1124338482" to="694775628#2" type="motorbike2"/>
    <trip id="mx_83" depart="130.31" from="295408462#1" to="828724697#1" type="motorbike2"/>
    <trip id="mx_84" depart="131.88" from="302751284#0" to="295408452#16-AddedOffRampEdge" type="motorbike2"/>
    <trip id="mx_85" depart="133.45" from="1280089201#0" to="696168834#0" type="motorbike2"/>
    <trip id="mx_86" depart="135.02" from="1034028676#0" to="295408461#0" type="motorbike2"/>
    <trip id="mx_87" depart="136.59" from="828724684#0" to="1280219257#0" type="motorbike2"/>
    <trip id="mx_88" depart="138.16" from="696168834#1" to="118688839#5" type="motorbike2"/>
    <trip id="mx_89" depart="139.73" from="1280219259#0" to="39368999#13" type="motorbike2"/>
    <trip id="mx_90" depart="141.30" from="964171425#5" to="693885804#0" type="motorbike2"/>
    <trip id="mx_91" depart="142.87" from="696169688" to="676509076#1" type="motorbike2"/>
    <trip id="mx_92" depart="144.44" from="-694715297" to="698046190" type="motorbike2"/>
    <trip id="mx_93" depart="146.01" from="160628085#1" to="-302751295#16" type="motorbike2"/>
    <trip id="mx_94" depart="147.58" from="408161670#25" to="295408452#6" type="motorbike2"/>
    <trip id="mx_95" depart="149.15" from="695504114#1" to="697200467#4" type="motorbike2"/>
    <trip id="mx_96" depart="150.72" from="35950897#6" to="697200467#4" type="motorbike2"/>
    <trip id="mx_97" depart="152.29" from="964171425#5" to="695040102#0" type="motorbike2"/>
    <trip id="mx_98" depart="153.86" from="-118570149#2" to="39368999#11" type="motorbike2"/>
    <trip id="mx_99" depart="155.43" from="-39354228#6" to="895430059" type="motorbike2"/>
    <trip id="mx_100" depart="157.00" from="295408464#0-AddedOffRampEdge" to="828724769" type="motorbike2"/>
    <trip id="mx_101" depart="158.57" from="698046188#1" to="696168834#1" type="motorbike2"/>
    <trip id="mx_102" depart="160.14" from="295408452#6" to="673151142#4" type="motorbike2"/>
    <trip id="mx_103" depart="161.71" from="695504114#4" to="118673947#0" type="motorbike2"/>
    <trip id="mx_104" depart="163.28" from="295408460#3" to="408161670#24" type="motorbike2"/>
    <trip id="mx_105" depart="164.85" from="-118673947#0" to="1034028675#2" type="motorbike2"/>
    <trip id="mx_106" depart="166.42" from="-118688839#6" to="1280219261" type="motorbike2"/>
    <trip id="mx_107" depart="167.99" from="-676438752#5" to="-642050078#1" type="motorbike2"/>
    <trip id="mx_108" depart="169.56" from="295408460#2" to="828678829" type="motorbike2"/>
    <trip id="mx_109" depart="171.13" from="695490087#1" to="295408462#10" type="motorbike2"/>
    <trip id="mx_110" depart="172.70" from="693885802#0" to="302751282" type="motorbike2"/>
    <trip id="mx_111" depart="174.27" from="-1279915898#3" to="696168834#0" type="motorbike2"/>
    <trip id="mx_112" depart="175.84" from="1282340719" to="695040552#1" type="motorbike2"/>
    <trip id="mx_113" depart="177.41" from="-35950864#21" to="302751284#3" type="motorbike2"/>
    <trip id="mx_114" depart="178.98" from="694830396" to="295408452#9" type="motorbike2"/>
    <trip id="mx_115" depart="180.55" from="-39368999#20" to="372220804#33" type="motorbike2"/>
    <trip id="mx_116" depart="182.12" from="694830397" to="295408452#8" type="motorbike2"/>
    <trip id="mx_117" depart="183.69" from="694598419#1" to="694772625#0" type="motorbike2"/>
    <trip id="mx_118" depart="185.26" from="694598419#1" to="1280219261" type="motorbike2"/>
    <trip id="mx_119" depart="186.83" from="295408459#7" to="118570159#8" type="motorbike2"/>
    <trip id="mx_120" depart="188.40" from="694598419#1-AddedOnRampEdge" to="695040552#0" type="motorbike2"/>
    <trip id="mx_121" depart="189.97" from="-295386152#1" to="1280219259#1" type="motorbike2"/>
    <trip id="mx_122" depart="191.54" from="118575975#1" to="1280089222" type="motorbike2"/>
    <trip id="mx_123" depart="193.11" from="641077473#0" to="1280219260#1" type="motorbike2"/>
    <trip id="mx_124" depart="194.68" from="295408464#0-AddedOffRampEdge" to="-118573603#1" type="motorbike2"/>
    <trip id="mx_125" depart="196.25" from="-676455250#1" to="408161670#20" type="motorbike2"/>
    <trip id="mx_126" depart="197.82" from="1280219261" to="695025562#0" type="motorbike2"/>
    <trip id="mx_127" depart="199.39" from="694715298" to="-641074760#0" type="motorbike2"/>
    <trip id="mx_128" depart="200.96" from="372466116#0" to="35950897#10" type="motorbike2"/>
    <trip id="mx_129" depart="202.53" from="695030266" to="695504114#0" type="motorbike2"/>
    <trip id="mx_130" depart="204.10" from="1282340731" to="-35950864#16" type="motorbike2"/>
    <trip id="mx_131" depart="205.67" from="694600787" to="408161670#24" type="motorbike2"/>
    <trip id="mx_132" depart="207.24" from="694598419#1-AddedOnRampEdge" to="-828724754#0" type="motorbike2"/>
    <trip id="mx_133" depart="208.81" from="35950897#0" to="39368999#11" type="motorbike2"/>
    <trip id="mx_134" depart="210.38" from="694830397" to="765351891#2" type="motorbike2"/>
    <trip id="mx_135" depart="211.95" from="-641074760#1" to="295408460#2" type="motorbike2"/>
    <trip id="mx_136" depart="213.52" from="-828724775" to="964171425#4" type="motorbike2"/>
    <trip id="mx_137" depart="215.09" from="-641120965#0" to="302751282-AddedOnRampEdge" type="motorbike2"/>
    <trip id="mx_138" depart="216.66" from="302751295#23" to="-302751295#25" type="motorbike2"/>
    <trip id="mx_139" depart="218.23" from="695490087#1" to="1418093030" type="motorbike2"/>
    <trip id="mx_140" depart="219.80" from="408161670#27" to="695510007#0" type="motorbike2"/>
    <trip id="mx_141" depart="221.37" from="-118674615#3" to="-302751286#2" type="motorbike2"/>
    <trip id="mx_142" depart="222.94" from="693885804#0" to="302751295#32" type="motorbike2"/>
    <trip id="mx_143" depart="224.51" from="160628085#0" to="295408452#7" type="motorbike2"/>
    <trip id="mx_144" depart="226.08" from="295408462#10" to="696715602" type="motorbike2"/>
    <trip id="mx_145" depart="227.65" from="-372589135#0" to="976025288#0" type="motorbike2"/>
    <trip id="mx_146" depart="229.22" from="1034028676#1" to="-697822848#1" type="motorbike2"/>
    <trip id="mx_147" depart="230.79" from="1282340716" to="302751282" type="motorbike2"/>
    <trip id="mx_148" depart="232.36" from="1282340752" to="35950897#6" type="motorbike2"/>
    <trip id="mx_149" depart="233.93" from="-828678816#0" to="295408468#0" type="motorbike2"/>
    <trip id="mx_150" depart="235.50" from="-39368999#10" to="689583171#12" type="motorbike2"/>
    <trip id="mx_151" depart="237.07" from="698936203#7" to="1391330070#6" type="motorbike2"/>
    <trip id="mx_152" depart="238.64" from="694772625#0" to="1034028676#0" type="motorbike2"/>
    <trip id="mx_153" depart="240.21" from="295449625#1" to="695446625#3" type="motorbike2"/>
    <trip id="mx_154" depart="241.78" from="39354228#1" to="295408452#0" type="motorbike2"/>
    <trip id="mx_155" depart="243.35" from="693885802#0" to="35950868#0" type="motorbike2"/>
    <trip id="mx_156" depart="244.92" from="295408468#0" to="295408467" type="motorbike2"/>
    <trip id="mx_157" depart="246.49" from="295128790#4" to="695510007#0" type="motorbike2"/>
    <trip id="mx_158" depart="248.06" from="-118575969#0" to="1210918873#1" type="motorbike2"/>
    <trip id="mx_159" depart="249.63" from="698936203#5" to="302751282-AddedOnRampEdge" type="motorbike2"/>
    <trip id="mx_160" depart="251.20" from="-118566872#2" to="694601892" type="motorbike2"/>
    <trip id="mx_161" depart="252.77" from="695040552#0" to="643237805" type="motorbike2"/>
    <trip id="mx_162" depart="254.34" from="1034028675#2" to="828678740" type="motorbike2"/>
    <trip id="mx_163" depart="255.91" from="-641093018" to="295408452#16-AddedOffRampEdge" type="motorbike2"/>
    <trip id="mx_164" depart="257.48" from="695446625#1" to="695025560#0" type="motorbike2"/>
    <trip id="mx_165" depart="259.05" from="295408452#9" to="910359052#5" type="motorbike2"/>
    <trip id="mx_166" depart="260.62" from="295408477" to="828678798#1" type="motorbike2"/>
    <trip id="mx_167" depart="262.19" from="295449629#2" to="1165643358" type="motorbike2"/>
    <trip id="mx_168" depart="263.76" from="295408464#0-AddedOffRampEdge" to="-372466114#0" type="motorbike2"/>
    <trip id="mx_169" depart="265.33" from="676453142#1" to="828678785#0" type="motorbike2"/>
    <trip id="mx_170" depart="266.90" from="695040105#3" to="1034028675#2" type="motorbike2"/>
    <trip id="mx_171" depart="268.47" from="1282340735" to="302751282-AddedOnRampEdge" type="motorbike2"/>
    <trip id="mx_172" depart="270.04" from="295408460#3" to="408161670#22" type="motorbike2"/>
    <trip id="mx_173" depart="271.61" from="698046188#1" to="-828678787#3" type="motorbike2"/>
    <trip id="mx_174" depart="273.18" from="118673937#0" to="693416739#3" type="motorbike2"/>
    <trip id="mx_175" depart="274.75" from="1034028677#0" to="693885804#0" type="motorbike2"/>
    <trip id="mx_176" depart="276.32" from="295408459#0" to="1210918873#1" type="motorbike2"/>
    <trip id="mx_177" depart="277.89" from="1282340717#0" to="-828724727" type="motorbike2"/>
    <trip id="mx_178" depart="279.46" from="828724700#1" to="295408462#8" type="motorbike2"/>
    <trip id="mx_179" depart="281.03" from="694830397" to="695025560#0" type="motorbike2"/>
    <trip id="mx_180" depart="282.60" from="694830395#0" to="695040105#3" type="motorbike2"/>
    <trip id="mx_181" depart="284.17" from="-118673886#1" to="35950959#2" type="motorbike2"/>
    <trip id="mx_182" depart="285.74" from="295408452#16" to="895449538" type="motorbike2"/>
    <trip id="mx_183" depart="287.31" from="-39368999#5" to="372466117#0" type="motorbike2"/>
    <trip id="mx_184" depart="288.88" from="695025562#0" to="118672604#0" type="motorbike2"/>
    <trip id="mx_185" depart="290.45" from="372466114#1" to="697200467#11" type="motorbike2"/>
    <trip id="mx_186" depart="292.02" from="295449625#0" to="295408452#0" type="motorbike2"/>
    <trip id="mx_187" depart="293.59" from="641397122#0" to="1280219258#0" type="motorbike2"/>
    <trip id="mx_188" depart="295.16" from="695502611#1" to="118570164#1" type="motorbike2"/>
    <trip id="mx_189" depart="296.73" from="676438752#4" to="160628085#0" type="motorbike2"/>
    <trip id="mx_190" depart="298.30" from="694830396" to="1280089201#0" type="motorbike2"/>
    <trip id="mx_191" depart="299.87" from="693416739#3" to="1282340717#1" type="motorbike2"/>
    <trip id="mx_192" depart="301.44" from="695502611#0" to="295408462#12" type="motorbike2"/>
    <trip id="mx_193" depart="303.01" from="1210918872#1" to="302751282" type="motorbike2"/>
    <trip id="mx_194" depart="304.58" from="695496039#3" to="372467078#0" type="motorbike2"/>
    <trip id="mx_195" depart="306.15" from="-35950868#15" to="-118673929#0" type="motorbike2"/>
    <trip id="mx_196" depart="307.72" from="964171425#6" to="695502611#0" type="motorbike2"/>
    <trip id="mx_197" depart="309.29" from="-118575975#1" to="693885803#26" type="motorbike2"/>
    <trip id="mx_198" depart="310.86" from="1282340737" to="910359052#0" type="motorbike2"/>
    <trip id="mx_199" depart="312.43" from="35950925#2" to="-828678870" type="motorbike2"/>
    <trip id="mx_200" depart="314.00" from="-39368999#20" to="695510007#0" type="motorbike2"/>
    <trip id="mx_201" depart="315.57" from="-118555049#7" to="693416427" type="motorbike2"/>
    <trip id="mx_202" depart="317.14" from="372220804#29" to="779462187#1" type="motorbike2"/>
    <trip id="mx_203" depart="318.71" from="39368999#9" to="295394152#1" type="motorbike2"/>
    <trip id="mx_204" depart="320.28" from="694583900#0-AddedOffRampEdge" to="1355319662" type="motorbike2"/>
    <trip id="mx_205" depart="321.85" from="295449627#5" to="1282340737" type="motorbike2"/>
    <trip id="mx_206" depart="323.42" from="295408464#0-AddedOffRampEdge" to="35950864#24" type="motorbike2"/>
    <trip id="mx_207" depart="324.99" from="1282340731" to="828724787" type="motorbike2"/>
    <trip id="mx_208" depart="326.56" from="1034027336#2" to="39368999#6" type="motorbike2"/>
    <trip id="mx_209" depart="328.13" from="964171425#6" to="-828678877" type="motorbike2"/>
    <trip id="mx_210" depart="329.70" from="697200463#1" to="302751282-AddedOnRampEdge" type="motorbike2"/>
    <trip id="mx_211" depart="331.27" from="697200467#8" to="693416427" type="motorbike2"/>
    <trip id="mx_212" depart="332.84" from="295408452#9" to="118570167#0" type="motorbike2"/>
    <trip id="mx_213" depart="334.41" from="695295265#0" to="1280219259#0" type="motorbike2"/>
    <trip id="mx_214" depart="335.98" from="-895499825" to="-694715297" type="motorbike2"/>
    <trip id="mx_215" depart="337.55" from="-828724760" to="35950868#7" type="motorbike2"/>
    <trip id="mx_216" depart="339.12" from="295408460#2" to="1391330070#9" type="motorbike2"/>
    <trip id="mx_217" depart="340.69" from="295408460#3" to="828724725#0" type="motorbike2"/>
    <trip id="mx_218" depart="342.26" from="-118570147#1" to="295408465#2-AddedOnRampEdge" type="motorbike2"/>
    <trip id="mx_219" depart="343.83" from="295408462#0" to="-828724795#1" type="motorbike2"/>
    <trip id="mx_220" depart="345.40" from="118570175" to="39368999#9" type="motorbike2"/>
    <trip id="mx_221" depart="346.97" from="694601892" to="35950897#13" type="motorbike2"/>
    <trip id="mx_222" depart="348.54" from="-372467085#1" to="35950868#5" type="motorbike2"/>
    <trip id="mx_223" depart="350.11" from="295408462#0" to="39368999#11" type="motorbike2"/>
    <trip id="mx_224" depart="351.68" from="302751295#15" to="35950925#0" type="motorbike2"/>
    <trip id="mx_225" depart="353.25" from="695295268" to="693885802#0" type="motorbike2"/>
    <trip id="mx_226" depart="354.82" from="828678860#1" to="295408477" type="motorbike2"/>
    <trip id="mx_227" depart="356.39" from="693111346#0" to="118570174#2" type="motorbike2"/>
    <trip id="mx_228" depart="357.96" from="695025562#0" to="295408452#0" type="motorbike2"/>
    <trip id="mx_229" depart="359.53" from="39368999#10" to="694598419#1-AddedOnRampEdge" type="motorbike2"/>
    <trip id="mx_230" depart="361.10" from="-39354228#6" to="1280219257#0" type="motorbike2"/>
    <trip id="mx_231" depart="362.67" from="910359052#3" to="302751282" type="motorbike2"/>
    <trip id="mx_232" depart="364.24" from="695446625#1" to="695502613" type="motorbike2"/>
    <trip id="mx_233" depart="365.81" from="295408464#0" to="295408452#16-AddedOffRampEdge" type="motorbike2"/>
    <trip id="mx_234" depart="367.38" from="295408468#0" to="910359052#5" type="motorbike2"/>
    <trip id="mx_235" depart="368.95" from="694600787" to="828678876#0" type="motorbike2"/>
    <trip id="mx_236" depart="370.52" from="1280089201#2" to="695502611#1" type="motorbike2"/>
    <trip id="mx_237" depart="372.09" from="-828678803#1" to="35950868#14" type="motorbike2"/>
    <trip id="mx_238" depart="373.66" from="-828724794" to="-695446623#1" type="motorbike2"/>
    <trip id="mx_239" depart="375.23" from="-302751295#5" to="295408462#8" type="motorbike2"/>
    <trip id="mx_240" depart="376.80" from="-673151198#1" to="695025560#0" type="motorbike2"/>
    <trip id="mx_241" depart="378.37" from="910359052#5" to="-641436976" type="motorbike2"/>
    <trip id="mx_242" depart="379.94" from="295449627#4" to="698936203#3" type="motorbike2"/>
    <trip id="mx_243" depart="381.51" from="295449625#1" to="302751282-AddedOnRampEdge" type="motorbike2"/>
    <trip id="mx_244" depart="383.08" from="1034028676#0" to="694601892" type="motorbike2"/>
    <trip id="mx_245" depart="384.65" from="35950868#8" to="118570181#3" type="motorbike2"/>
    <trip id="mx_246" depart="386.22" from="-828724703" to="1280219259#1" type="motorbike2"/>
    <trip id="mx_247" depart="387.79" from="694775628#0" to="295408465#1" type="motorbike2"/>
    <trip id="mx_248" depart="389.36" from="295408463#0" to="295408452#0" type="motorbike2"/>
    <trip id="mx_249" depart="390.93" from="-673151144#0" to="828724768#3" type="motorbike2"/>
    <trip id="mx_250" depart="392.50" from="118570167#0" to="695295267#0" type="motorbike2"/>
    <trip id="mx_251" depart="394.07" from="302751287" to="1418093030" type="motorbike2"/>
    <trip id="mx_252" depart="395.64" from="118555049#0" to="295408452#11" type="motorbike2"/>
    <trip id="mx_253" depart="397.21" from="295408463#0" to="35950925#6" type="motorbike2"/>
    <trip id="mx_254" depart="398.78" from="695496042#0" to="-895482900" type="motorbike2"/>
    <trip id="mx_255" depart="400.35" from="1034028677#1" to="372466121#1" type="motorbike2"/>
    <trip id="mx_256" depart="401.92" from="408161670#13" to="-673151200#0" type="motorbike2"/>
    <trip id="mx_257" depart="403.49" from="694600787" to="694598419#1" type="motorbike2"/>
    <trip id="mx_258" depart="405.06" from="35950864#3" to="118570181#3" type="motorbike2"/>
    <trip id="mx_259" depart="406.63" from="118673913#4" to="695040552#1" type="motorbike2"/>
    <trip id="mx_260" depart="408.20" from="-1379125025" to="295408465#2-AddedOnRampEdge" type="motorbike2"/>
    <trip id="mx_261" depart="409.77" from="295408452#5" to="689583171#11" type="motorbike2"/>
    <trip id="mx_262" depart="411.34" from="695504114#0" to="695446625#3" type="motorbike2"/>
    <trip id="mx_263" depart="412.91" from="35950897#15" to="694774375#0" type="motorbike2"/>
    <trip id="mx_264" depart="414.48" from="295408464#0-AddedOffRampEdge" to="1391330070#0" type="motorbike2"/>
    <trip id="mx_265" depart="416.05" from="-895478110" to="408161672#1" type="motorbike2"/>
    <trip id="mx_266" depart="417.62" from="-1076293830#0" to="-828724693" type="motorbike2"/>
    <trip id="mx_267" depart="419.19" from="35950925#6" to="694600787" type="motorbike2"/>
    <trip id="mx_268" depart="420.76" from="689583171#11" to="1034028677#0" type="motorbike2"/>
    <trip id="mx_269" depart="422.33" from="694774375#0" to="779462187#1" type="motorbike2"/>
    <trip id="mx_270" depart="423.90" from="35950897#6" to="673151142#4" type="motorbike2"/>
    <trip id="mx_271" depart="425.47" from="694600787" to="694594970#0" type="motorbike2"/>
    <trip id="mx_272" depart="427.04" from="-828678860#3" to="-372220804#34" type="motorbike2"/>
    <trip id="mx_273" depart="428.61" from="408161670#20" to="828724745" type="motorbike2"/>
    <trip id="mx_274" depart="430.18" from="828724750" to="1165643358" type="motorbike2"/>
    <trip id="mx_275" depart="431.75" from="1282340731" to="1280614485" type="motorbike2"/>
    <trip id="mx_276" depart="433.32" from="39368999#17" to="-295386152#6" type="motorbike2"/>
    <trip id="mx_277" depart="434.89" from="910359052#0" to="295128790#4" type="motorbike2"/>
    <trip id="mx_278" depart="436.46" from="1034028678" to="1279915919" type="motorbike2"/>
    <trip id="mx_279" depart="438.03" from="-372467090#1" to="696168834#0" type="motorbike2"/>
    <trip id="mx_280" depart="439.60" from="693885804#0" to="295408461#1" type="motorbike2"/>
    <trip id="mx_281" depart="441.17" from="-642360965#3" to="302751295#17" type="motorbike2"/>
    <trip id="mx_282" depart="442.74" from="295449627#0" to="-696991611#2" type="motorbike2"/>
    <trip id="mx_283" depart="444.31" from="695295265#0" to="696169688" type="motorbike2"/>
    <trip id="mx_284" depart="445.88" from="695040105#5" to="1034028675#2" type="motorbike2"/>
    <trip id="mx_285" depart="447.45" from="118688839#3" to="694775628#2" type="motorbike2"/>
    <trip id="mx_286" depart="449.02" from="698936203#3" to="695504114#0" type="motorbike2"/>
    <trip id="mx_287" depart="450.59" from="694830395#0" to="695496039#2" type="motorbike2"/>
    <trip id="mx_288" depart="452.16" from="118575976#1" to="-1279915900#2" type="motorbike2"/>
    <trip id="mx_289" depart="453.73" from="372220804#4" to="408161670#22" type="motorbike2"/>
    <trip id="mx_290" depart="455.30" from="1282340772" to="295408460#2" type="motorbike2"/>
    <trip id="mx_291" depart="456.87" from="35950897#13" to="694774375#0" type="motorbike2"/>
    <trip id="mx_292" depart="458.44" from="689583171#11" to="295394152#1" type="motorbike2"/>
    <trip id="mx_293" depart="460.01" from="697200467#0" to="694600787" type="motorbike2"/>
    <trip id="mx_294" depart="461.58" from="295408462#10" to="118573603#1" type="motorbike2"/>
    <trip id="mx_295" depart="463.15" from="694830397" to="-35950868#9" type="motorbike2"/>
    <trip id="mx_296" depart="464.72" from="295408464#0-AddedOffRampEdge" to="694600787" type="motorbike2"/>
    <trip id="mx_297" depart="466.29" from="1280614485" to="408161670#18" type="motorbike2"/>
    <trip id="mx_298" depart="467.86" from="-375341805" to="1391330070#12" type="motorbike2"/>
    <trip id="mx_299" depart="469.43" from="-35950868#37" to="302751295#5" type="motorbike2"/>
    <trip id="mx_300" depart="471.00" from="-697869050#1" to="-1279915900#2" type="motorbike2"/>
    <trip id="mx_301" depart="472.57" from="1280614504#0" to="-828678744" type="motorbike2"/>
    <trip id="mx_302" depart="474.14" from="408161670#18" to="695295267#0" type="motorbike2"/>
    <trip id="mx_303" depart="475.71" from="118573603#0" to="295408465#1" type="motorbike2"/>
    <trip id="mx_304" depart="477.28" from="408161670#0" to="1280089222" type="motorbike2"/>
    <trip id="mx_305" depart="478.85" from="295408452#7" to="-118570181#8" type="motorbike2"/>
    <trip id="mx_306" depart="480.42" from="343237264#1" to="689583171#12" type="motorbike2"/>