<?xml version="1.0" encoding="UTF-8"?>

<!-- generated on 2026-03-22 01:58:29.870107 by Eclipse SUMO randomTrips.py v1_26_0+0000-fa7df22d7f1
<configuration>
    <net-file value="D:\WeSaveTime-ASEAN\sumo\danang\danang.net.xml"/>
    <additional-files value="D:\WeSaveTime-ASEAN\sumo\danang\danang.vtypes.xml"/>
    <weights-prefix value="D:\WeSaveTime-ASEAN\sumo\danang\danang.weights"/>
    <output-trip-file value="D:\WeSaveTime-ASEAN\sumo\danang\danang.tx_.trips.xml"/>
    <prefix value="tx_"/>
    <trip-attributes value="type=&quot;taxi&quot;"/>
    <fringe-factor value="5"/>
    <random value="True"/>
    <remove-loops value="True"/>
    <end value="600.0"/>
    <period value="7.5"/>
</configuration>
-->

<routes xmlns:xsi="http://www.w3.org/2001/XMLSchema-instance" xsi:noNamespaceSchemaLocation="http://sumo.dlr.de/xsd/routes_file.xsd">
    <trip id="tx_0" depart="0.00" from="408161671#1" to="964171425#5" type="taxi"/>
    <trip id="tx_1" depart="7.50" from="693330103#2" to="118570175" type="taxi"/>
    <trip id="tx_2" depart="15.00" from="694775628#0" to="694598419#1-AddedOnRampEdge" type="taxi"/>
    <trip id="tx_3" depart="22.50" from="642356081#0" to="302737424#0" type="taxi"/>
    <trip id="tx_4" depart="30.00" from="-694512223#3" to="-828678872" type="taxi"/>
    <trip id="tx_5" depart="37.50" from="408161670#18" to="-35950831#1" type="taxi"/>
    <trip id="tx_6" depart="45.00" from="295408459#5" to="695504114#4" type="taxi"/>
    <trip id="tx_7" depart="52.50" from="1282715048#0" to="-828678788#1" type="taxi"/>
    <trip id="tx_8" depart="60.00" from="-39368999#14" to="643237806#1" type="taxi"/>
    <trip id="tx_9" depart="67.50" from="694775628#0" to="830713116#14" type="taxi"/>
    <trip id="tx_10" depart="75.00" from="828724753" to="35950897#0" type="taxi"/>
    <trip id="tx_11" depart="82.50" from="-828678814#5" to="118570168#9" type="taxi"/>
    <trip id="tx_12" depart="90.00" from="1282340719" to="-828724794" type="taxi"/>
    <trip id="tx_13" depart="97.50" from="-708004447" to="1280219267" type="taxi"/>
    <trip id="tx_14" depart="105.00" from="910359052#3" to="695033474#1" type="taxi"/>
    <trip id="tx_15" depart="112.50" from="302751295#23" to="295408459#7" type="taxi"/>
    <trip id="tx_16" depart="120.00" from="160628085#1" to="779462187#1" type="taxi"/>
    <trip id="tx_17" depart="127.50" from="828724694#0" to="-35950868#3" type="taxi"/>
    <trip id="tx_18" depart="135.00" from="295408468#0" to="-118564767#3" type="taxi"/>
    <trip id="tx_19" depart="142.50" from="693885804#2" to="-828724699#2" type="taxi"/>
    <trip id="tx_20" depart="150.00" from="118573606#2" to="828724721" type="taxi"/>
    <trip id="tx_21" depart="157.50" from="695295268" to="695496039#3" type="taxi"/>
    <trip id="tx_22" depart="165.00" from="695040105#5" to="408161670#17" type="taxi"/>
    <trip id="tx_23" depart="172.50" from="372191360#0" to="372220804#5" type="taxi"/>
    <trip id="tx_24" depart="180.00" from="1282340739" to="673151142#5" type="taxi"/>
    <trip id="tx_25" depart="187.50" from="399626766#11" to="295408461#0" type="taxi"/>
    <trip id="tx_26" depart="195.00" from="302751284#3" to="-697869050#1" type="taxi"/>
    <trip id="tx_27" depart="202.50" from="693885804#0" to="695446625#1" type="taxi"/>
    <trip id="tx_28" depart="210.00" from="695496039#2" to="295408452#11" type="taxi"/>
    <trip id="tx_29" depart="217.50" from="1280089222" to="118674615#2" type="taxi"/>
    <trip id="tx_30" depart="225.00" from="562701502#1" to="408161669#4" type="taxi"/>
    <trip id="tx_31" depart="232.50" from="-673151194" to="694768221#0" type="taxi"/>
    <trip id="tx_32" depart="240.00" from="-698936202#0" to="-408161669#16" type="taxi"/>
    <trip id="tx_33" depart="247.50" from="35950925#5" to="830713110#4" type="taxi"/>
    <trip id="tx_34" depart="255.00" from="1280219265" to="717756677" type="taxi"/>
    <trip id="tx_35" depart="262.50" from="118570151#2" to="300949144#1" type="taxi"/>
    <trip id="tx_36" depart="270.00" from="689583163#5" to="295408461#4" type="taxi"/>
    <trip id="tx_37" depart="277.50" from="1447330815#0-AddedOnRampEdge" to="695033474#1" type="taxi"/>
    <trip id="tx_38" depart="285.00" from="1279880688#3" to="408161670#16" type="taxi"/>
    <trip id="tx_39" depart="292.50" from="1279880663#0" to="118555049#15" type="taxi"/>
    <trip id="tx_40" depart="300.00" from="-561474244" to="695502611#1" type="taxi"/>
    <trip id="tx_41" depart="307.50" from="-118570159#3" to="-295408470#0" type="taxi"/>
    <trip id="tx_42" depart="315.00" from="118570149#4" to="160628085#1" type="taxi"/>
    <trip id="tx_43" depart="322.50" from="372433420#0" to="199383481-AddedOnRampEdge" type="taxi"/>
    <trip id="tx_44" depart="330.00" from="-118688839#2" to="-828724725#2" type="taxi"/>
    <trip id="tx_45" depart="337.50" from="295408452#16-AddedOffRampEdge" to="-295386152#11" type="taxi"/>
    <trip id="tx_46" depart="345.00" from="1282715048#0" to="-35950868#25" type="taxi"/>
    <trip id="tx_47" depart="352.50" from="694600787" to="1279915900#0" type="taxi"/>
    <trip id="tx_48" depart="360.00" from="695025562#1" to="295394152#1" type="taxi"/>
    <trip id="tx_49" depart="367.50" from="-561474227#1" to="695496039#3" type="taxi"/>
    <trip id="tx_50" depart="375.00" from="-39368999#0" to="828724778" type="taxi"/>
    <trip id="tx_51" depart="382.50" from="372467090#1" to="910359052#9" type="taxi"/>
    <trip id="tx_52" depart="390.00" from="118673913#4" to="693885804#0" type="taxi"/>
    <trip id="tx_53" depart="397.50" from="-641397117" to="695295267#0" type="taxi"/>
    <trip id="tx_54" depart="405.00" from="-1124338486" to="39368999#21" type="taxi"/>
    <trip id="tx_55" depart="412.50" from="695490086#1" to="-1207701497" type="taxi"/>
    <trip id="tx_56" depart="420.00" from="300949142#0" to="-697869050#0" type="taxi"/>
    <trip id="tx_57" depart="427.50" from="-676438752#2" to="1034028676#1" type="taxi"/>
    <trip id="tx_58" depart="435.00" from="693885804#2" to="-673151200#0" type="taxi"/>
    <trip id="tx_59" depart="442.50" from="-39368999#20" to="-372466114#2" type="taxi"/>
    <trip id="tx_60" depart="450.00" from="1279880688#0" to="302751295#0" type="taxi"/>
    <trip id="tx_61" depart="457.50" from="295408463#0" to="118575965" type="taxi"/>
    <trip id="tx_62" depart="465.00" from="1279880687#1" to="694512223#3" type="taxi"/>
    <trip id="tx_63" depart="472.50" from="-696715602" to="1447330815#0-AddedOnRampEdge" type="taxi"/>
    <trip id="tx_64" depart="480.00" from="1280219258#0" to="695040105#3" type="taxi"/>
    <trip id="tx_65" depart="487.50" from="-905050168" to="754061373" type="taxi"/>
    <trip id="tx_66" depart="495.00" from="695490087#1" to="695025562#1" type="taxi"/>
    <trip id="tx_67" depart="502.50" from="118570169#0" to="1034028678" type="taxi"/>
    <trip id="tx_68" depart="510.00" from="408162778#4" to="1426764507#0" type="taxi"/>
    <trip id="tx_69" depart="517.50" from="295449627#3" to="-295449628" type="taxi"/>
    <trip id="tx_70" depart="525.00" from="118575972#3" to="676691455#2" type="taxi"/>
    <trip id="tx_71" depart="532.50" from="695496042#2" to="404244075#2" type="taxi"/>
    <trip id="tx_72" depart="540.00" from="1279915895#0" to="-118672619#2" type="taxi"/>
    <trip id="tx_73" depart="547.50" from="372589137#1" to="695025562#1" type="taxi"/>
    <trip id="tx_74" depart="555.00" from="-405113892#0" to="-828678748" type="taxi"/>
    <trip id="tx_75" depart="562.50" from="693885803#26" to="295408452#16" type="taxi"/>
    <trip id="tx_76" depart="570.00" from="408162778#4" to="295408462#12" type="taxi"/>
    <trip id="tx_77" depart="577.50" from="562709015#1" to="295408452#10" type="taxi"/>
    <trip id="tx_78" depart="585.00" from="-256672293" to="910359052#8" type="taxi"/>
    <trip id="tx_79" depart="592.50" from="641073883#5" to="295408462#1" type="taxi"/>
</routes>
