<?xml version="1.0" encoding="UTF-8"?>

<!-- generated on 2026-03-24 14:36:50.312985 by Eclipse SUMO randomTrips.py v1_26_0+0000-fa7df22d7f1
<configuration>
    <net-file value="D:\WeSaveTime-ASEAN\sumo\danang\danang.net.xml"/>
    <additional-files value="D:\WeSaveTime-ASEAN\sumo\danang\danang.vtypes.xml"/>
    <weights-prefix value="D:\WeSaveTime-ASEAN\sumo\danang\danang.weights"/>
    <output-trip-file value="D:\WeSaveTime-ASEAN\sumo\danang\danang.mx_.trips.xml"/>
    <prefix value="mx_"/>
    <trip-attributes value="type=&quot;motorbike2&quot;"/>
    <fringe-factor value="2"/>
    <random value="True"/>
    <remove-loops value="True"/>
    <end value="600.0"/>
    <period value="0.87"/>
</configuration>
-->

<routes xmlns:xsi="http://www.w3.org/2001/XMLSchema-instance" xsi:noNamespaceSchemaLocation="http://sumo.dlr.de/xsd/routes_file.xsd">
    <trip id="mx_0" depart="0.00" from="295408462#12" to="-118570159#2" type="motorbike2"/>
    <trip id="mx_1" depart="0.87" from="964171425#2" to="698936203#9" type="motorbike2"/>
    <trip id="mx_2" depart="1.74" from="295128790#3" to="295128790#3" type="motorbike2"/>
    <trip id="mx_3" depart="2.61" from="408161670#17" to="-562701502#2" type="motorbike2"/>
    <trip id="mx_4" depart="3.48" from="641082247" to="695496042#1" type="motorbike2"/>
    <trip id="mx_5" depart="4.35" from="408161670#27" to="-372464935#1" type="motorbike2"/>
    <trip id="mx_6" depart="5.22" from="673151147#0" to="295128790#10" type="motorbike2"/>
    <trip id="mx_7" depart="6.09" from="295408452#7" to="408161670#20" type="motorbike2"/>
    <trip id="mx_8" depart="6.96" from="-35950868#31" to="118570159#7" type="motorbike2"/>
    <trip id="mx_9" depart="7.83" from="695496039#1" to="1210918872#0" type="motorbike2"/>
    <trip id="mx_10" depart="8.70" from="828678838" to="302739239#2" type="motorbike2"/>
    <trip id="mx_11" depart="9.57" from="-1446429434#0" to="295408452#0" type="motorbike2"/>
    <trip id="mx_12" depart="10.44" from="118672444#4" to="39368999#14" type="motorbike2"/>
    <trip id="mx_13" depart="11.31" from="35950882#8" to="1034028676#2" type="motorbike2"/>
    <trip id="mx_14" depart="12.18" from="295408477" to="828678874#2" type="motorbike2"/>
    <trip id="mx_15" depart="13.05" from="697200467#10" to="118570178#1" type="motorbike2"/>
    <trip id="mx_16" depart="13.92" from="-118575975#4" to="-118672464#2" type="motorbike2"/>
    <trip id="mx_17" depart="14.79" from="-118575975#6" to="408161670#21" type="motorbike2"/>
    <trip id="mx_18" depart="15.66" from="-405113896#1" to="39354228#6" type="motorbike2"/>
    <trip id="mx_19" depart="16.53" from="-1447078728#1" to="35950868#30" type="motorbike2"/>
    <trip id="mx_20" depart="17.40" from="-344658497#2" to="-118573603#2" type="motorbike2"/>
    <trip id="mx_21" depart="18.27" from="828724748" to="-118672606#2" type="motorbike2"/>
    <trip id="mx_22" depart="19.14" from="641397122#1" to="695496039#2" type="motorbike2"/>
    <trip id="mx_23" depart="20.01" from="693885804#0" to="199383481-AddedOnRampEdge" type="motorbike2"/>
    <trip id="mx_24" depart="20.88" from="35950864#28" to="694775628#2" type="motorbike2"/>
    <trip id="mx_25" depart="21.75" from="828678750#0" to="964171425#0" type="motorbike2"/>
    <trip id="mx_26" depart="22.62" from="695040552#1" to="-676453141" type="motorbike2"/>
    <trip id="mx_27" depart="23.49" from="408161670#27" to="-35950864#20" type="motorbike2"/>
    <trip id="mx_28" depart="24.36" from="828678862#1" to="695544822" type="motorbike2"/>
    <trip id="mx_29" depart="25.23" from="-695510008#1" to="35950868#0" type="motorbike2"/>
    <trip id="mx_30" depart="26.10" from="-35950850#10" to="695510007#0" type="motorbike2"/>
    <trip id="mx_31" depart="26.97" from="1280614485" to="372464931#3" type="motorbike2"/>
    <trip id="mx_32" depart="27.84" from="295408461#1" to="561913438#2" type="motorbike2"/>
    <trip id="mx_33" depart="28.71" from="118573606#10" to="1034028677#0" type="motorbike2"/>
    <trip id="mx_34" depart="29.58" from="676451738#0" to="694775628#2" type="motorbike2"/>
    <trip id="mx_35" depart="30.45" from="35950925#5" to="696168834#0" type="motorbike2"/>
    <trip id="mx_36" depart="31.32" from="408161670#21" to="693416427" type="motorbike2"/>
    <trip id="mx_37" depart="32.19" from="964171425#2" to="-695027208" type="motorbike2"/>
    <trip id="mx_38" depart="33.06" from="-118672612#2" to="779462187#1" type="motorbike2"/>
    <trip id="mx_39" depart="33.93" from="641423230" to="695490087#1" type="motorbike2"/>
    <trip id="mx_40" depart="34.80" from="295449625#0" to="694774375#0" type="motorbike2"/>
    <trip id="mx_41" depart="35.67" from="695040105#5" to="693416739#0" type="motorbike2"/>
    <trip id="mx_42" depart="36.54" from="295128790#10" to="302751299#0" type="motorbike2"/>
    <trip id="mx_43" depart="37.41" from="-828678794#1" to="-302739239#2" type="motorbike2"/>
    <trip id="mx_44" depart="38.28" from="828678815" to="-676712674" type="motorbike2"/>
    <trip id="mx_45" depart="39.15" from="-118575968#5" to="35950882#14" type="motorbike2"/>
    <trip id="mx_46" depart="40.02" from="828724755#0" to="35950959#2" type="motorbike2"/>
    <trip id="mx_47" depart="40.89" from="695295267#0" to="695496039#2" type="motorbike2"/>
    <trip id="mx_48" depart="41.76" from="-562634341" to="828678798#1" type="motorbike2"/>
    <trip id="mx_49" depart="42.63" from="828678912#4" to="35950883#1" type="motorbike2"/>
    <trip id="mx_50" depart="43.50" from="695295267#0" to="1210918873#1" type="motorbike2"/>
    <trip id="mx_51" depart="44.37" from="-828678743" to="698936203#9" type="motorbike2"/>
    <trip id="mx_52" depart="45.24" from="118672299#3" to="408161670#13" type="motorbike2"/>
    <trip id="mx_53" depart="46.11" from="-561474249#1" to="-828678745#0" type="motorbike2"/>
    <trip id="mx_54" depart="46.98" from="693885804#2" to="-35950942#2" type="motorbike2"/>
    <trip id="mx_55" depart="47.85" from="302751284#3" to="295408452#1" type="motorbike2"/>
    <trip id="mx_56" depart="48.72" from="693885802#0" to="697200467#9" type="motorbike2"/>
    <trip id="mx_57" depart="49.59" from="562709015#1" to="-118555049#0" type="motorbike2"/>
    <trip id="mx_58" depart="50.46" from="693885804#0" to="302751282-AddedOnRampEdge" type="motorbike2"/>
    <trip id="mx_59" depart="51.33" from="693885804#0" to="-39354228#6" type="motorbike2"/>
    <trip id="mx_60" depart="52.20" from="-1458964293" to="-118566872#16" type="motorbike2"/>
    <trip id="mx_61" depart="53.07" from="35950897#15" to="696168834#0" type="motorbike2"/>
    <trip id="mx_62" depart="53.94" from="-302751295#10" to="828724694#0" type="motorbike2"/>
    <trip id="mx_63" depart="54.81" from="964171425#5" to="1391330070#6" type="motorbike2"/>
    <trip id="mx_64" depart="55.68" from="695496039#0" to="35950925#3" type="motorbike2"/>
    <trip id="mx_65" depart="56.55" from="35950897#10" to="695040105#0" type="motorbike2"/>
    <trip id="mx_66" depart="57.42" from="408161670#27" to="-895447147" type="motorbike2"/>
    <trip id="mx_67" depart="58.29" from="1280219259#0" to="-118570168#1" type="motorbike2"/>
    <trip id="mx_68" depart="59.16" from="-372466116#1" to="-295449645" type="motorbike2"/>
    <trip id="mx_69" depart="60.03" from="-828724749#0" to="828678779#0" type="motorbike2"/>
    <trip id="mx_70" depart="60.90" from="828724770" to="1282340736" type="motorbike2"/>
    <trip id="mx_71" depart="61.77" from="35950883#7" to="695040552#1" type="motorbike2"/>
    <trip id="mx_72" depart="62.64" from="295386152#0" to="695496042#1" type="motorbike2"/>
    <trip id="mx_73" depart="63.51" from="1279915921" to="408161670#13" type="motorbike2"/>
    <trip id="mx_74" depart="64.38" from="694715298" to="828678832" type="motorbike2"/>
    <trip id="mx_75" depart="65.25" from="118570164#0" to="-300949141" type="motorbike2"/>
    <trip id="mx_76" depart="66.12" from="295386152#0" to="1280614485" type="motorbike2"/>
    <trip id="mx_77" depart="66.99" from="695030266" to="35950959#3" type="motorbike2"/>
    <trip id="mx_78" depart="67.86" from="39368999#9" to="695040552#0" type="motorbike2"/>
    <trip id="mx_79" depart="68.73" from="-118672299#2" to="-828678817#5" type="motorbike2"/>
    <trip id="mx_80" depart="69.60" from="694830396" to="693416739#0" type="motorbike2"/>
    <trip id="mx_81" depart="70.47" from="694774375#0" to="295449625#1" type="motorbike2"/>
    <trip id="mx_82" depart="71.34" from="-828724724#2" to="-372220804#19" type="motorbike2"/>
    <trip id="mx_83" depart="72.21" from="-697870570" to="1418093030" type="motorbike2"/>
    <trip id="mx_84" depart="73.08" from="35950897#15" to="118674615#4" type="motorbike2"/>
    <trip id="mx_85" depart="73.95" from="-676509076#0" to="1446429434#1" type="motorbike2"/>
    <trip id="mx_86" depart="74.82" from="1280089201#2" to="-828724724#2" type="motorbike2"/>
    <trip id="mx_87" depart="75.69" from="694750604#0" to="641397122#0" type="motorbike2"/>
    <trip id="mx_88" depart="76.56" from="641092778" to="828678826#0" type="motorbike2"/>
    <trip id="mx_89" depart="77.43" from="-118673944#5" to="779462187#0" type="motorbike2"/>
    <trip id="mx_90" depart="78.30" from="295449627#3" to="693416739#0" type="motorbike2"/>
    <trip id="mx_91" depart="79.17" from="695496039#1" to="676450959" type="motorbike2"/>
    <trip id="mx_92" depart="80.04" from="828678773#0" to="676465939#0" type="motorbike2"/>
    <trip id="mx_93" depart="80.91" from="694598419#1-AddedOnRampEdge" to="-302751295#12" type="motorbike2"/>
    <trip id="mx_94" depart="81.78" from="1391330070#12" to="35950897#15" type="motorbike2"/>
    <trip id="mx_95" depart="82.65" from="-39368999#0" to="828724750" type="motorbike2"/>
    <trip id="mx_96" depart="83.52" from="-118566872#9" to="695040105#5" type="motorbike2"/>
    <trip id="mx_97" depart="84.39" from="1034028678" to="344658497#3" type="motorbike2"/>
    <trip id="mx_98" depart="85.26" from="689583171#11" to="828678743" type="motorbike2"/>
    <trip id="mx_99" depart="86.13" from="695490086#1" to="562709015#0" type="motorbike2"/>
    <trip id="mx_100" depart="87.00" from="295408452#16-AddedOffRampEdge" to="695040105#3" type="motorbike2"/>
    <trip id="mx_101" depart="87.87" from="-695090346#4" to="-828724700#2" type="motorbike2"/>
    <trip id="mx_102" depart="88.74" from="408161670#22" to="295408460#2" type="motorbike2"/>
    <trip id="mx_103" depart="89.61" from="1034028678" to="673151142#5" type="motorbike2"/>
    <trip id="mx_104" depart="90.48" from="693330103#0" to="1280219259#1" type="motorbike2"/>
    <trip id="mx_105" depart="91.35" from="695295265#0" to="693885802#0" type="motorbike2"/>
    <trip id="mx_106" depart="92.22" from="160628085#0" to="964171425#0" type="motorbike2"/>
    <trip id="mx_107" depart="93.09" from="-302751287" to="372467078#1" type="motorbike2"/>
    <trip id="mx_108" depart="93.96" from="1282340733#1" to="964171425#4" type="motorbike2"/>
    <trip id="mx_109" depart="94.83" from="695502611#0" to="1280614505#0" type="motorbike2"/>
    <trip id="mx_110" depart="95.70" from="408161670#18" to="1280219259#1" type="motorbike2"/>
    <trip id="mx_111" depart="96.57" from="-405962814" to="910359052#0" type="motorbike2"/>
    <trip id="mx_112" depart="97.44" from="696756023" to="-694590820" type="motorbike2"/>
    <trip id="mx_113" depart="98.31" from="295408463#1" to="35950897#6" type="motorbike2"/>
    <trip id="mx_114" depart="99.18" from="673151142#4" to="964171425#0" type="motorbike2"/>
    <trip id="mx_115" depart="100.05" from="1279915896#1" to="295408459#5" type="motorbike2"/>
    <trip id="mx_116" depart="100.92" from="408161670#28" to="295128790#10" type="motorbike2"/>
    <trip id="mx_117" depart="101.79" from="-372220804#16" to="695295268" type="motorbike2"/>
    <trip id="mx_118" depart="102.66" from="118570160" to="321069061" type="motorbike2"/>
    <trip id="mx_119" depart="103.53" from="-372467090#1" to="302751295#11" type="motorbike2"/>
    <trip id="mx_120" depart="104.40" from="118570167#0" to="694600787" type="motorbike2"/>
    <trip id="mx_121" depart="105.27" from="695502611#1" to="695040552#0" type="motorbike2"/>
    <trip id="mx_122" depart="106.14" from="-641077473#1" to="-676467950" type="motorbike2"/>
    <trip id="mx_123" depart="107.01" from="-641423230" to="689583171#12" type="motorbike2"/>
    <trip id="mx_124" depart="107.88" from="1034028678" to="676453140#2" type="motorbike2"/>
    <trip id="mx_125" depart="108.75" from="118672606#0" to="765351891#4" type="motorbike2"/>
    <trip id="mx_126" depart="109.62" from="694772625#0" to="-641487801" type="motorbike2"/>
    <trip id="mx_127" depart="110.49" from="828678837#1" to="828724787" type="motorbike2"/>
    <trip id="mx_128" depart="111.36" from="-697869050#1" to="676453140#2" type="motorbike2"/>
    <trip id="mx_129" depart="112.23" from="1280614485" to="828678874#0" type="motorbike2"/>
    <trip id="mx_130" depart="113.10" from="694774375#0" to="-828678909#1" type="motorbike2"/>
    <trip id="mx_131" depart="113.97" from="697200467#1" to="673151145#0" type="motorbike2"/>
    <trip id="mx_132" depart="114.84" from="695033474#1" to="35950883#1" type="motorbike2"/>
    <trip id="mx_133" depart="115.71" from="408161670#25" to="964171425#0" type="motorbike2"/>
    <trip id="mx_134" depart="116.58" from="964171425#4" to="-35950959#4" type="motorbike2"/>
    <trip id="mx_135" depart="117.45" from="1279915921" to="828678740" type="motorbike2"/>
    <trip id="mx_136" depart="118.32" from="-828724810#1" to="1280614505#1" type="motorbike2"/>
    <trip id="mx_137" depart="119.19" from="828678785#2" to="295408462#1" type="motorbike2"/>
    <trip id="mx_138" depart="120.06" from="964171425#3" to="295408462#0" type="motorbike2"/>
    <trip id="mx_139" depart="120.93" from="-828724762" to="1280089201#0" type="motorbike2"/>
    <trip id="mx_140" depart="121.80" from="695510007#1" to="695295265#0" type="motorbike2"/>
    <trip id="mx_141" depart="122.67" from="828678745#1" to="695040552#0" type="motorbike2"/>
    <trip id="mx_142" depart="123.54" from="695040105#0" to="-321069049#0" type="motorbike2"/>
    <trip id="mx_143" depart="124.41" from="693885803#0" to="35950925#3" type="motorbike2"/>
    <trip id="mx_144" depart="125.28" from="295449627#5" to="697869050#1" type="motorbike2"/>
    <trip id="mx_145" depart="126.15" from="35950868#5" to="118688839#4" type="motorbike2"/>
    <trip id="mx_146" depart="127.02" from="694830396" to="295394152#0" type="motorbike2"/>
    <trip id="mx_147" depart="127.89" from="1282340717#0" to="295408468#0" type="motorbike2"/>
    <trip id="mx_148" depart="128.76" from="694601892" to="1280219259#0" type="motorbike2"/>
    <trip id="mx_149" depart="129.63" from="695033474#1" to="295408452#11" type="motorbike2"/>
    <trip id="mx_150" depart="130.50" from="-302739242#0" to="118570159#4" type="motorbike2"/>
    <trip id="mx_151" depart="131.37" from="-828724746" to="695510007#1" type="motorbike2"/>
    <trip id="mx_152" depart="132.24" from="693885804#0" to="1282340735" type="motorbike2"/>
    <trip id="mx_153" depart="133.11" from="694601892" to="295408465#1" type="motorbike2"/>
    <trip id="mx_154" depart="133.98" from="-118570168#4" to="1282340716" type="motorbike2"/>
    <trip id="mx_155" depart="134.85" from="-39368999#14" to="697200467#4-AddedOffRampEdge" type="motorbike2"/>
    <trip id="mx_156" depart="135.72" from="-118575965" to="-828724750" type="motorbike2"/>
    <trip id="mx_157" depart="136.59" from="828678773#1" to="-373009311#2" type="motorbike2"/>
    <trip id="mx_158" depart="137.46" from="695496039#3" to="408161670#18" type="motorbike2"/>
    <trip id="mx_159" depart="138.33" from="-562701502#0" to="372464935#1" type="motorbike2"/>
    <trip id="mx_160" depart="139.20" from="695496039#2" to="372464935#3" type="motorbike2"/>
    <trip id="mx_161" depart="140.07" from="-673151200#0" to="302751295#2" type="motorbike2"/>
    <trip id="mx_162" depart="140.94" from="295408460#3" to="118673921#0" type="motorbike2"/>
    <trip id="mx_163" depart="141.81" from="-828678874#2" to="295408462#10" type="motorbike2"/>
    <trip id="mx_164" depart="142.68" from="695030266" to="295128790#0" type="motorbike2"/>
    <trip id="mx_165" depart="143.55" from="693885804#2" to="408161670#27" type="motorbike2"/>
    <trip id="mx_166" depart="144.42" from="295408452#6" to="295408477" type="motorbike2"/>
    <trip id="mx_167" depart="145.29" from="695502611#1" to="199383481-AddedOnRampEdge" type="motorbike2"/>
    <trip id="mx_168" depart="146.16" from="295408452#16-AddedOffRampEdge" to="1282340737" type="motorbike2"/>
    <trip id="mx_169" depart="147.03" from="695646333" to="697200467#4-AddedOffRampEdge" type="motorbike2"/>
    <trip id="mx_170" depart="147.90" from="1280219257#1" to="-405962816#1" type="motorbike2"/>
    <trip id="mx_171" depart="148.77" from="372466114#1" to="-321069046#1" type="motorbike2"/>
    <trip id="mx_172" depart="149.64" from="1280219259#0" to="-673151200#2" type="motorbike2"/>
    <trip id="mx_173" depart="150.51" from="-828724751" to="695504114#4" type="motorbike2"/>
    <trip id="mx_174" depart="151.38" from="-295408470#0" to="693885802#2" type="motorbike2"/>
    <trip id="mx_175" depart="152.25" from="295408461#4" to="-118673944#1" type="motorbike2"/>
    <trip id="mx_176" depart="153.12" from="676453141" to="295408463#1" type="motorbike2"/>
    <trip id="mx_177" depart="153.99" from="1391330070#12" to="39368999#11" type="motorbike2"/>
    <trip id="mx_178" depart="154.86" from="695496039#3" to="964171425#0" type="motorbike2"/>
    <trip id="mx_179" depart="155.73" from="35950925#0" to="1280219259#0" type="motorbike2"/>
    <trip id="mx_180" depart="156.60" from="697200467#0" to="35950959#5" type="motorbike2"/>
    <trip id="mx_181" depart="157.47" from="408161670#28" to="673151142#3" type="motorbike2"/>
    <trip id="mx_182" depart="158.34" from="-344658497#2" to="695496040" type="motorbike2"/>
    <trip id="mx_183" depart="159.21" from="-695446623#1" to="1282340717#1" type="motorbike2"/>
    <trip id="mx_184" depart="160.08" from="696168834#1" to="295408452#6" type="motorbike2"/>
    <trip id="mx_185" depart="160.95" from="-372589135#0" to="295408468#4" type="motorbike2"/>
    <trip id="mx_186" depart="161.82" from="-372466117#3" to="-697870570" type="motorbike2"/>
    <trip id="mx_187" depart="162.69" from="696168834#0" to="828724821#0" type="motorbike2"/>
    <trip id="mx_188" depart="163.56" from="695295265#0" to="372466116#0" type="motorbike2"/>
    <trip id="mx_189" depart="164.43" from="693111346#0" to="-642396065" type="motorbike2"/>
    <trip id="mx_190" depart="165.30" from="408161670#28" to="694774375#0" type="motorbike2"/>
    <trip id="mx_191" depart="166.17" from="1426764507#0" to="-676494208" type="motorbike2"/>
    <trip id="mx_192" depart="167.04" from="694767769" to="408161670#21" type="motorbike2"/>
    <trip id="mx_193" depart="167.91" from="-828678808" to="295408468#6" type="motorbike2"/>
    <trip id="mx_194" depart="168.78" from="1391330070#12" to="-302751295#23" type="motorbike2"/>
    <trip id="mx_195" depart="169.65" from="693885804#0" to="118573606#8" type="motorbike2"/>
    <trip id="mx_196" depart="170.52" from="1280219258#0" to="779462187#1" type="motorbike2"/>
    <trip id="mx_197" depart="171.39" from="-321069035#5" to="-831070297#0" type="motorbike2"/>
    <trip id="mx_198" depart="172.26" from="-118570168#6" to="828678861" type="motorbike2"/>
    <trip id="mx_199" depart="173.13" from="-118555049#7" to="1282340717#1" type="motorbike2"/>
    <trip id="mx_200" depart="174.00" from="-828724756#0" to="641397119#1" type="motorbike2"/>
    <trip id="mx_201" depart="174.87" from="1034028676#0" to="372467080" type="motorbike2"/>
    <trip id="mx_202" depart="175.74" from="295408463#1" to="160628085#0" type="motorbike2"/>
    <trip id="mx_203" depart="176.61" from="-641466470" to="-344658497#0" type="motorbike2"/>
    <trip id="mx_204" depart="177.48" from="695504114#0" to="1034028676#1" type="motorbike2"/>
    <trip id="mx_205" depart="178.35" from="-828678821#1" to="698046188#1" type="motorbike2"/>
    <trip id="mx_206" depart="179.22" from="-641077473#1" to="696169688" type="motorbike2"/>
    <trip id="mx_207" depart="180.09" from="641397122#1" to="118570181#4" type="motorbike2"/>
    <trip id="mx_208" depart="180.96" from="695496039#1" to="-35950882#5" type="motorbike2"/>
    <trip id="mx_209" depart="181.83" from="35950897#1" to="408161670#27" type="motorbike2"/>
    <trip id="mx_210" depart="182.70" from="695496039#0" to="-697869050#0" type="motorbike2"/>
    <trip id="mx_211" depart="183.57" from="694598419#1-AddedOnRampEdge" to="118570169#2" type="motorbike2"/>
    <trip id="mx_212" depart="184.44" from="35950897#13" to="-828724728" type="motorbike2"/>
    <trip id="mx_213" depart="185.31" from="35950897#13" to="-302751295#27" type="motorbike2"/>
    <trip id="mx_214" depart="186.18" from="-641109023#1" to="828678846" type="motorbike2"/>
    <trip id="mx_215" depart="187.05" from="-118575974#4" to="-118575968#1" type="motorbike2"/>
    <trip id="mx_216" depart="187.92" from="408161670#18" to="295408462#10" type="motorbike2"/>
    <trip id="mx_217" depart="188.79" from="1280219257#1" to="295449627#2" type="motorbike2"/>
    <trip id="mx_218" depart="189.66" from="295408459#7" to="697200467#8" type="motorbike2"/>
    <trip id="mx_219" depart="190.53" from="1210918872#1" to="828678793#0" type="motorbike2"/>
    <trip id="mx_220" depart="191.40" from="1282340737" to="697200467#7" type="motorbike2"/>
    <trip id="mx_221" depart="192.27" from="695490086#1" to="35950868#21" type="motorbike2"/>
    <trip id="mx_222" depart="193.14" from="118573606#13" to="295408452#10" type="motorbike2"/>
    <trip id="mx_223" depart="194.01" from="695040105#3" to="-1355319663" type="motorbike2"/>
    <trip id="mx_224" depart="194.88" from="295408468#4" to="964171425#6" type="motorbike2"/>
    <trip id="mx_225" depart="195.75" from="372466117#0" to="408161670#22" type="motorbike2"/>
    <trip id="mx_226" depart="196.62" from="1210918873#0" to="695090346#4" type="motorbike2"/>
    <trip id="mx_227" depart="197.49" from="-828678794#0" to="-118555049#0" type="motorbike2"/>
    <trip id="mx_228" depart="198.36" from="1280089201#2" to="1279915895#1" type="motorbike2"/>
    <trip id="mx_229" depart="199.23" from="1210918873#0" to="-828724725#2" type="motorbike2"/>
    <trip id="mx_230" depart="200.10" from="693885803#26" to="1034028675#0" type="motorbike2"/>
    <trip id="mx_231" depart="200.97" from="694601892" to="295386152#2" type="motorbike2"/>
    <trip id="mx_232" depart="201.84" from="828678905" to="697200467#9" type="motorbike2"/>
    <trip id="mx_233" depart="202.71" from="-118555049#17" to="1165643358" type="motorbike2"/>
    <trip id="mx_234" depart="203.58" from="295408459#0" to="828724763#6" type="motorbike2"/>
    <trip id="mx_235" depart="204.45" from="-1282340733#1" to="695090346#3" type="motorbike2"/>
    <trip id="mx_236" depart="205.32" from="-118672633#3" to="1280219259#1" type="motorbike2"/>
    <trip id="mx_237" depart="206.19" from="303134497" to="-895499825" type="motorbike2"/>
    <trip id="mx_238" depart="207.06" from="695025562#1" to="-828678903" type="motorbike2"/>
    <trip id="mx_239" depart="207.93" from="694598419#1" to="302751284#3" type="motorbike2"/>
    <trip id="mx_240" depart="208.80" from="372466115#1" to="695496039#3" type="motorbike2"/>
    <trip id="mx_241" depart="209.67" from="694583900#0-AddedOffRampEdge" to="302751282-AddedOnRampEdge" type="motorbike2"/>
    <trip id="mx_242" depart="210.54" from="-828724775" to="-35950868#9" type="motorbike2"/>
    <trip id="mx_243" depart="211.41" from="828724721" to="562701506#0" type="motorbike2"/>
    <trip id="mx_244" depart="212.28" from="-118672612#1" to="-118570164#0" type="motorbike2"/>
    <trip id="mx_245" depart="213.15" from="295408452#16" to="676494208" type="motorbike2"/>
    <trip id="mx_246" depart="214.02" from="910359052#8" to="895430059" type="motorbike2"/>
    <trip id="mx_247" depart="214.89" from="693885804#2" to="295408460#3" type="motorbike2"/>
    <trip id="mx_248" depart="215.76" from="118673944#2" to="295128790#0" type="motorbike2"/>
    <trip id="mx_249" depart="216.63" from="295408468#6" to="295449629#0" type="motorbike2"/>
    <trip id="mx_250" depart="217.50" from="-697822848#1" to="695490086#1" type="motorbike2"/>
    <trip id="mx_251" depart="218.37" from="828678819" to="35950868#17" type="motorbike2"/>
    <trip id="mx_252" depart="219.24" from="694202154#0" to="828678821#0" type="motorbike2"/>
    <trip id="mx_253" depart="220.11" from="-828678912#3" to="302751295#3" type="motorbike2"/>
    <trip id="mx_254" depart="220.98" from="408161670#0" to="695502614" type="motorbike2"/>
    <trip id="mx_255" depart="221.85" from="256668722" to="199383481" type="motorbike2"/>
    <trip id="mx_256" depart="222.72" from="-828724755#1" to="1446429434#0" type="motorbike2"/>
    <trip id="mx_257" depart="223.59" from="1280219261" to="35950925#5" type="motorbike2"/>
    <trip id="mx_258" depart="224.46" from="-695054805#0" to="704621733#1" type="motorbike2"/>
    <trip id="mx_259" depart="225.33" from="689583171#2" to="-828678787#1" type="motorbike2"/>
    <trip id="mx_260" depart="226.20" from="372466117#0" to="-118570167#1" type="motorbike2"/>
    <trip id="mx_261" depart="227.07" from="695030266" to="1124338484" type="motorbike2"/>
    <trip id="mx_262" depart="227.94" from="295408461#1" to="828724791" type="motorbike2"/>
    <trip id="mx_263" depart="228.81" from="-1446429434#2" to="964171425#0" type="motorbike2"/>
    <trip id="mx_264" depart="229.68" from="1280614504#2" to="118672606#7" type="motorbike2"/>
    <trip id="mx_265" depart="230.55" from="696692079" to="1280219267" type="motorbike2"/>
    <trip id="mx_266" depart="231.42" from="1426764507#0" to="828724682" type="motorbike2"/>
    <trip id="mx_267" depart="232.29" from="35950868#9" to="1391330070#6" type="motorbike2"/>
    <trip id="mx_268" depart="233.16" from="695025562#0" to="118673944#3" type="motorbike2"/>
    <trip id="mx_269" depart="234.03" from="-118673921#2" to="295449627#3" type="motorbike2"/>
    <trip id="mx_270" depart="234.90" from="-834094454" to="35950868#10" type="motorbike2"/>
    <trip id="mx_271" depart="235.77" from="1280219266" to="-35950864#7" type="motorbike2"/>
    <trip id="mx_272" depart="236.64" from="1282340736" to="696168834#0" type="motorbike2"/>
    <trip id="mx_273" depart="237.51" from="408161670#28" to="1210918872#1" type="motorbike2"/>
    <trip id="mx_274" depart="238.38" from="673151198#0" to="-118570159#15" type="motorbike2"/>
    <trip id="mx_275" depart="239.25" from="694583900#0-AddedOffRampEdge" to="-676438753#0" type="motorbike2"/>
    <trip id="mx_276" depart="240.12" from="689583171#4" to="-302751295#8" type="motorbike2"/>
    <trip id="mx_277" depart="240.99" from="405113892#4" to="39368999#13" type="motorbike2"/>
    <trip id="mx_278" depart="241.86" from="372220804#34" to="828724763#6" type="motorbike2"/>
    <trip id="mx_279" depart="242.73" from="695025562#1" to="695496039#2" type="motorbike2"/>
    <trip id="mx_280" depart="243.60" from="828724767#0" to="-372220804#29" type="motorbike2"/>
    <trip id="mx_281" depart="244.47" from="561913437#3" to="642047428" type="motorbike2"/>
    <trip id="mx_282" depart="245.34" from="-828724816" to="-676453138#0" type="motorbike2"/>
    <trip id="mx_283" depart="246.21" from="693330103#2" to="1210918873#1" type="motorbike2"/>
    <trip id="mx_284" depart="247.08" from="694830396" to="695490087#1" type="motorbike2"/>
    <trip id="mx_285" depart="247.95" from="-372467078#2" to="408161670#20" type="motorbike2"/>
    <trip id="mx_286" depart="248.82" from="295408452#6" to="1280219257#1" type="motorbike2"/>
    <trip id="mx_287" depart="249.69" from="372220804#2" to="295408452#16-AddedOffRampEdge" type="motorbike2"/>
    <trip id="mx_288" depart="250.56" from="696169687#1" to="302751284#0" type="motorbike2"/>
    <trip id="mx_289" depart="251.43" from="693111346#0" to="118673944#7" type="motorbike2"/>
    <trip id="mx_290" depart="252.30" from="295408462#10" to="1280219259#0" type="motorbike2"/>
    <trip id="mx_291" depart="253.17" from="694583900#0-AddedOffRampEdge" to="695496039#0" type="motorbike2"/>
    <trip id="mx_292" depart="254.04" from="695504114#4" to="964171425#4" type="motorbike2"/>
    <trip id="mx_293" depart="254.91" from="964171425#2" to="964171425#2" type="motorbike2"/>
    <trip id="mx_294" depart="255.78" from="1280219257#0" to="1160396738" type="motorbike2"/>
    <trip id="mx_295" depart="256.65" from="694830395#1" to="160628085#0" type="motorbike2"/>
    <trip id="mx_296" depart="257.52" from="695446625#3" to="1279915921" type="motorbike2"/>
    <trip id="mx_297" depart="258.39" from="295408464#0" to="160628085#2" type="motorbike2"/>
    <trip id="mx_298" depart="259.26" from="964171425#6" to="964171425#3" type="motorbike2"/>
    <trip id="mx_299" depart="260.13" from="694594970#0" to="828678912#4" type="motorbike2"/>
    <trip id="mx_300" depart="261.00" from="695295267#0" to="695496039#2" type="motorbike2"/>
    <trip id="mx_301" depart="261.87" from="695090346#4" to="-1207701497" type="motorbike2"/>
    <trip id="mx_302" depart="262.74" from="693111346#0" to="695040102#1" type="motorbike2"/>
    <trip id="mx_303" depart="263.61" from="1280219257#0" to="35950897#15" type="motorbike2"/>
    <trip id="mx_304" depart="264.48" from="-372464927" to="295408461#1" type="motorbike2"/>
    <trip id="mx_305" depart="265.35" from="-372466117#2" to="39368999#14" type="motorbike2"/>
    <trip id="mx_306" depart="266.22" from="1279915921" to="118672607#5" type="motorbike2"/>
    <trip id="mx_307" depart="267.09" from="673151142#4" to="-35950850#10" type="motorbike2"/>
    <trip id="mx_308" depart="267.96" from="-372220804#22" to="693885802#2" type="motorbike2"/>