<?xml version="1.0" encoding="UTF-8"?>

<!-- generated on 2026-03-22 01:58:32.820240 by Eclipse SUMO randomTrips.py v1_26_0+0000-fa7df22d7f1
<configuration>
    <net-file value="D:\WeSaveTime-ASEAN\sumo\danang\danang.net.xml"/>
    <additional-files value="D:\WeSaveTime-ASEAN\sumo\danang\danang.vtypes.xml"/>
    <weights-prefix value="D:\WeSaveTime-ASEAN\sumo\danang\danang.weights"/>
    <output-trip-file value="D:\WeSaveTime-ASEAN\sumo\danang\danang.bs_.trips.xml"/>
    <prefix value="bs_"/>
    <trip-attributes value="type=&quot;bus&quot;"/>
    <fringe-factor value="10"/>
    <random value="True"/>
    <remove-loops value="True"/>
    <end value="600.0"/>
    <period value="9.23"/>
</configuration>
-->

<routes xmlns:xsi="http://www.w3.org/2001/XMLSchema-instance" xsi:noNamespaceSchemaLocation="http://sumo.dlr.de/xsd/routes_file.xsd">
    <trip id="bs_0" depart="0.00" from="39368999#10" to="717756676" type="bus"/>
    <trip id="bs_1" depart="9.23" from="-830713113#8" to="295408452#7" type="bus"/>
    <trip id="bs_2" depart="18.46" from="694830397" to="-828724775" type="bus"/>
    <trip id="bs_3" depart="27.69" from="-1282340713#0" to="-610420095#7" type="bus"/>
    <trip id="bs_4" depart="36.92" from="697200467#4-AddedOffRampEdge" to="-118570172#2" type="bus"/>
    <trip id="bs_5" depart="46.15" from="695504114#1" to="717756679#1" type="bus"/>
    <trip id="bs_6" depart="55.38" from="1280614504#2" to="1280089201#2" type="bus"/>
    <trip id="bs_7" depart="64.61" from="295408452#8" to="676491483#1" type="bus"/>
    <trip id="bs_8" depart="73.84" from="964171425#3" to="118575973#1" type="bus"/>
    <trip id="bs_9" depart="83.07" from="-676458410#0" to="693885804#0" type="bus"/>
    <trip id="bs_10" depart="92.30" from="295408468#4" to="1471511793#0" type="bus"/>
    <trip id="bs_11" depart="101.53" from="-295386152#2" to="1280219259#1" type="bus"/>
    <trip id="bs_12" depart="110.76" from="765351891#4" to="-372464935#3" type="bus"/>
    <trip id="bs_13" depart="119.99" from="964171425#5" to="295408461#10" type="bus"/>
    <trip id="bs_14" depart="129.22" from="35950864#21" to="39368999#11" type="bus"/>
    <trip id="bs_15" depart="138.45" from="696461019" to="1280219261" type="bus"/>
    <trip id="bs_16" depart="147.68" from="828724766" to="408161670#25" type="bus"/>
    <trip id="bs_17" depart="156.91" from="-698993299" to="-405962815#1" type="bus"/>
    <trip id="bs_18" depart="166.14" from="295408460#2" to="302751284#3" type="bus"/>
    <trip id="bs_19" depart="175.37" from="1165643361" to="408161670#27" type="bus"/>
    <trip id="bs_20" depart="184.60" from="118672444#4" to="-895499825" type="bus"/>
    <trip id="bs_21" depart="193.83" from="693330103#2" to="695490087#1" type="bus"/>
    <trip id="bs_22" depart="203.06" from="-828678803#0" to="-256672293" type="bus"/>
    <trip id="bs_23" depart="212.29" from="-698053103" to="696169687#1" type="bus"/>
    <trip id="bs_24" depart="221.52" from="698053104" to="695490086#1" type="bus"/>
    <trip id="bs_25" depart="230.75" from="698046188#1" to="408161672#2" type="bus"/>
    <trip id="bs_26" depart="239.98" from="-644313265" to="694598419#1" type="bus"/>
    <trip id="bs_27" depart="249.21" from="695496040" to="695429325#1" type="bus"/>
    <trip id="bs_28" depart="258.44" from="693885804#2" to="35950897#10" type="bus"/>
    <trip id="bs_29" depart="267.67" from="562709015#1" to="-694715298" type="bus"/>
    <trip id="bs_30" depart="276.90" from="-828678813" to="695510007#0" type="bus"/>
    <trip id="bs_31" depart="286.13" from="694530227#8" to="35950925#9" type="bus"/>
    <trip id="bs_32" depart="295.36" from="1280219258#0" to="1280219249#0" type="bus"/>
    <trip id="bs_33" depart="304.59" from="754061373" to="1447330815#0" type="bus"/>
    <trip id="bs_34" depart="313.82" from="-372466117#0" to="697200467#9" type="bus"/>
    <trip id="bs_35" depart="323.05" from="408161670#27" to="302751284#0" type="bus"/>
    <trip id="bs_36" depart="332.28" from="408161669#1" to="-676491483#1" type="bus"/>
    <trip id="bs_37" depart="341.51" from="695496039#2" to="295408461#9" type="bus"/>
    <trip id="bs_38" depart="350.74" from="1280614504#0" to="695025562#1" type="bus"/>
    <trip id="bs_39" depart="359.97" from="695496039#1" to="1279880664#0" type="bus"/>
    <trip id="bs_40" depart="369.20" from="295449627#2" to="695490087#1" type="bus"/>
    <trip id="bs_41" depart="378.43" from="1282715048#0" to="-697822848#0" type="bus"/>
    <trip id="bs_42" depart="387.66" from="698936203#9" to="-118672634" type="bus"/>
    <trip id="bs_43" depart="396.89" from="295386151-AddedOffRampEdge" to="1280219258#0" type="bus"/>
    <trip id="bs_44" depart="406.12" from="1280219246" to="1280614505#0" type="bus"/>
    <trip id="bs_45" depart="415.35" from="1279915920#0" to="1280219260#1" type="bus"/>
    <trip id="bs_46" depart="424.58" from="-828678794#1" to="694530227#12" type="bus"/>
    <trip id="bs_47" depart="433.81" from="673151142#3" to="694598419#1-AddedOnRampEdge" type="bus"/>
    <trip id="bs_48" depart="443.04" from="160628085#1" to="408161670#21" type="bus"/>
    <trip id="bs_49" depart="452.27" from="-300949144#0" to="1447078728#0" type="bus"/>
    <trip id="bs_50" depart="461.50" from="694830395#1" to="-694715298" type="bus"/>
    <trip id="bs_51" depart="470.73" from="-39368999#20" to="1034028678" type="bus"/>
    <trip id="bs_52" depart="479.96" from="-35950868#6" to="1279915921" type="bus"/>
    <trip id="bs_53" depart="489.19" from="641073883#1" to="694598419#0" type="bus"/>
    <trip id="bs_54" depart="498.42" from="295408452#5" to="295408452#11" type="bus"/>
    <trip id="bs_55" depart="507.65" from="295386151-AddedOffRampEdge" to="-372466120#0" type="bus"/>
    <trip id="bs_56" depart="516.88" from="-118688839#5" to="910359052#9" type="bus"/>
    <trip id="bs_57" depart="526.11" from="295408459#4" to="828678787#3" type="bus"/>
    <trip id="bs_58" depart="535.34" from="-828724694#0" to="1210918872#1" type="bus"/>
    <trip id="bs_59" depart="544.57" from="693885803#0" to="295408465#2" type="bus"/>
    <trip id="bs_60" depart="553.80" from="372204131" to="693885804#2" type="bus"/>
    <trip id="bs_61" depart="563.03" from="695295267#0" to="695496040" type="bus"/>
    <trip id="bs_62" depart="572.26" from="408161672#0" to="828724713" type="bus"/>
    <trip id="bs_63" depart="581.49" from="-828724745" to="302751295#11" type="bus"/>
    <trip id="bs_64" depart="590.72" from="695502611#0" to="-562701508" type="bus"/>
    <trip id="bs_65" depart="599.95" from="695502611#0" to="118570164#6" type="bus"/>
</routes>
