<?xml version="1.0" encoding="UTF-8"?>

<!-- generated on 2026-03-22T01:58:13.241899+07:00 by Eclipse SUMO polyconvert 1.26.0
<polyconvertConfiguration xmlns:xsi="http://www.w3.org/2001/XMLSchema-instance" xsi:noNamespaceSchemaLocation="http://sumo.dlr.de/xsd/polyconvertConfiguration.xsd">

    <input>
        <net-file value="D:\WeSaveTime-ASEAN\sumo\danang\danang.net.xml"/>
        <osm-files value="D:\WeSaveTime-ASEAN\sumo\danang\map.osm"/>
        <type-file value="D:\WeSaveTime-ASEAN\sumo\danang\typemap.xml"/>
    </input>

    <output>
        <output-file value="D:\WeSaveTime-ASEAN\sumo\danang\danang.poly.xml"/>
    </output>

    <report>
        <no-warnings value="true"/>
    </report>

</polyconvertConfiguration>
-->

<additional xmlns:xsi="http://www.w3.org/2001/XMLSchema-instance" xsi:noNamespaceSchemaLocation="http://sumo.dlr.de/xsd/additional_file.xsd">
    <location netOffset="-199557.52,-1775548.33" convBoundary="-352.49,-3888.83,5414.47,6033.83" origBoundary="108.188834,16.006402,108.242896,16.096173" projParameter="+proj=utm +zone=49 +ellps=WGS84 +datum=WGS84 +units=m +no_defs"/>

    <poly id="1000446890" type="unknown" color="51,128,255" fill="0" layer="-1.00" shape="2202.289410,1568.839698 2140.986898,1460.358145 2114.781214,1420.543208 1968.205011,1197.856569 1936.483981,1219.270529 1927.511167,1228.118301 1921.294279,1237.239031 1917.707588,1248.428512 1863.491094,1573.637009 1772.201996,1640.695978 1717.494224,1644.180346 1595.272129,1624.266729 1378.681726,1594.010395 1373.846242,1645.927676 1534.634614,1676.383208 1350.775943,2096.040444 1338.740640,2119.127777 1326.928439,2134.947063 1287.685497,2176.498186 1277.665732,2192.614461 1112.430989,2537.977776 1102.689698,2553.281961 1091.247795,2563.193581 1077.668700,2569.479434 1063.804871,2572.922926 1049.612805,2574.266657 309.307848,2546.670908 113.529865,2539.369994 123.024953,2344.932556 105.592393,2258.984400 93.170457,2229.007115 45.030656,2171.904760 19.714331,2157.651573 -43.933421,2080.736389 -75.344666,2030.085327 -166.583648,1947.331836 -107.263395,1762.151920 -272.191671,1647.927202 -153.282848,1347.689774 -352.492829,1266.723089"/>
    <poly id="1015889454" type="building" color="153,128,102,153" fill="1" layer="-2.00" shape="3150.133664,2198.268242 3163.612540,2195.639766 3159.224370,2174.280411 3145.636925,2178.394342 3150.133664,2198.268242"/>
    <poly id="1034027336" type="unknown" color="51,128,255" fill="0" layer="-1.00" shape="3208.078939,878.528851 3203.291393,873.698111 3199.669461,867.943618 3197.367057,861.562322 3196.505673,854.829456 3197.111184,848.076913 3199.155478,841.604081 3202.535643,835.722432 3207.126757,830.699432 3212.685673,826.770908"/>
    <poly id="1034027337" type="unknown" color="51,128,255" fill="0" layer="-1.00" shape="3056.877977,844.354853 3058.268303,826.661140"/>
    <poly id="1034028675" type="unknown" color="51,128,255" fill="0" layer="-1.00" shape="2617.207966,776.392395 2654.234975,777.567028 2729.877389,787.348357 2789.472403,795.174865 2799.023180,797.427614 2811.764583,799.626435 2888.688659,809.966943 2900.250304,811.240312 2918.107386,813.193304 3036.628460,826.120988 3058.268303,826.661140 3121.883149,828.421048 3134.843241,829.365683 3192.289873,833.545291 3199.616176,832.837907 3207.126757,830.699432"/>
    <poly id="1034028676" type="unknown" color="51,128,255" fill="0" layer="-1.00" shape="3212.685673,826.770908 3216.748773,818.310798 3219.097363,810.571387 3221.014127,800.977239 3224.208110,761.254178 3228.749232,717.371159 3239.508780,621.309937 3247.374285,580.948369"/>
    <poly id="1034028677" type="unknown" color="51,128,255" fill="0" layer="-1.00" shape="3246.350732,879.920302 3241.712998,889.451274 3238.832010,898.216687 3237.497456,908.102038 3234.828908,957.452939 3228.546480,1091.052370 3222.889772,1126.799491"/>
    <poly id="1034028678" type="unknown" color="51,128,255" fill="0" layer="-1.00" shape="3210.187121,1126.670901 3207.266811,1090.197178 3215.095135,916.974275 3214.648307,904.421693 3212.547813,891.536909 3208.078939,878.528851"/>
    <poly id="1041122835" type="unknown" color="51,128,255" fill="0" layer="-1.00" shape="2709.831330,2980.938347 2637.954510,2964.773008 2593.935335,2959.374036 2582.135327,2957.816284"/>
    <poly id="1041123432" type="unknown" color="51,128,255" fill="0" layer="-1.00" shape="1415.700658,2623.861275 1412.769013,2685.077849 1411.394115,2688.728945 1408.394863,2689.456101"/>
    <poly id="1044133976" type="unknown" color="51,128,255" fill="0" layer="-1.00" shape="2747.251503,2266.386387 2962.794591,2199.577482 2906.466606,1895.882002"/>
    <poly id="1044133977" type="unknown" color="51,128,255" fill="0" layer="-1.00" shape="2906.466606,1895.882002 2958.025049,1896.385353 2959.435331,1887.373821 3039.793177,1878.586506 3043.197789,1904.045601 3044.865963,1908.652383 3030.996259,1910.898540 3029.111718,1907.723289 3022.247205,1910.096858 3009.426768,1913.923680 3010.760975,1927.150992 3008.249502,1928.325412 3010.749264,1943.818438 3019.461422,1941.874106 3023.262628,1951.413661 3026.959576,1953.191315 3037.738130,1951.219235 3044.817374,1964.834519 3051.451998,1997.171861 3030.595183,1999.833036 3033.907156,2016.799150 3040.052257,2046.175071 3048.314695,2045.831527 3054.468996,2075.893950 3069.397217,2075.926016 3071.207100,2090.287622 3080.399513,2090.618223 3083.233074,2123.792910 3209.322334,2125.876280 3338.822757,2191.449474 3416.450079,2142.056296 3455.706514,2156.347466 3740.424352,2161.932431"/>
    <poly id="1044133979" type="unknown" color="51,128,255" fill="0" layer="-1.00" shape="2906.466606,1895.882002 2895.856998,1838.702329 2796.479410,1837.069844 2682.341270,1831.173190 2682.264342,1936.150725 2578.382894,1935.631945 2531.069141,1933.843095 2493.287854,1927.407618 2404.881171,1914.222431 2344.455055,1908.900440 2278.939026,1904.931805"/>
    <poly id="1044133980" type="unknown" color="51,128,255" fill="0" layer="-1.00" shape="1440.611058,4142.960251 1683.277275,3883.510560 1755.297199,3823.166174 1769.897292,3839.415010 1816.711442,3799.711246 1835.610300,3787.772259 1855.999209,3771.195015 1875.359149,3749.780952 1892.437129,3765.564499 1908.139141,3780.159481 1911.078640,3779.776492 1916.167331,3776.784085 1937.419604,3762.288399 1941.854027,3754.454100 1942.294827,3744.270480 1937.622067,3734.443810 1905.125693,3691.757385 1921.460480,3666.751702 1921.065739,3662.891950 1915.455578,3657.397074 1913.606058,3652.061867 1915.056131,3647.634557 1935.307564,3617.681011 2190.374869,3825.246869 2250.340401,3510.016679 2270.249894,3405.391509 2272.830080,3390.261932 2311.377589,3164.461195 2352.265795,2946.193189 2400.121731,2701.341001 2420.933554,2634.147606 2380.963981,2438.874527 2361.359748,2339.687940 2354.191693,2302.008750"/>
    <poly id="1044133982" type="unknown" color="51,128,255" fill="0" layer="-1.00" shape="2202.289410,1568.839698 2242.683596,1577.598526 2294.558117,1590.366950 2317.162502,1596.574573 2345.592875,1600.422420 2428.749576,1632.416560 2448.927836,1638.191814 2470.594325,1643.149685 2487.384441,1643.842991 2501.717848,1641.822845 2533.626940,1631.227074 2542.325531,1629.061259 2542.871326,1715.812717 2685.019038,1717.323137 2685.084509,1679.978582 2871.673484,1693.418171 2873.292355,1701.525190 2968.509282,1725.817293 2996.386792,1732.386629 3014.777279,1735.041178 3022.565463,1734.460373 3040.979892,1726.139687 3028.050653,1697.153880 3024.717258,1685.769652 3062.281256,1676.815295 3146.954226,1651.978854 3233.608436,1638.312590 3237.876271,1670.659560 3244.110033,1699.480577 3251.821467,1729.090210 3263.694778,1766.396202 3396.847686,1727.321679 3742.614663,1719.607857"/>
    <poly id="1044356565" type="unknown" color="51,128,255" fill="0" layer="-1.00" shape="2603.312405,3899.287285 2365.135579,3531.892609 2250.340401,3510.016679"/>
    <poly id="1044356569" type="unknown" color="51,128,255" fill="0" layer="-1.00" shape="2681.611647,3236.909920 2867.541481,3258.030777 2806.748269,3619.117725 3013.248155,3657.238884 3394.201046,3732.233594 3478.395875,3745.765845 3714.969590,3769.468978"/>
    <poly id="1044356572" type="unknown" color="51,128,255" fill="0" layer="-1.00" shape="2311.377589,3164.461195 2681.611647,3236.909920"/>
    <poly id="1044356573" type="unknown" color="51,128,255" fill="0" layer="-1.00" shape="2681.611647,3236.909920 2751.202946,2919.282960 2749.723019,2902.402961 2781.639727,2765.124327 2797.579273,2717.765228 2838.768572,2676.733568"/>
    <poly id="1044356574" type="unknown" color="51,128,255" fill="0" layer="-1.00" shape="2354.191693,2302.008750 2382.469572,2299.368783 2381.821648,2294.194561 2433.335276,2296.192217 2467.100769,2299.480959 2489.738631,2301.867417 2568.073877,2321.932640 2747.251503,2266.386387"/>
    <poly id="1044356575" type="unknown" color="51,128,255" fill="0" layer="-1.00" shape="2838.768572,2676.733568 2783.597337,2581.834888 2777.148947,2574.523746 2768.954685,2568.775458 2779.349558,2557.405987 2803.454872,2549.495718 2797.137817,2454.792858 2759.477276,2407.888747 2749.258642,2408.480222 2745.854872,2384.704448 2780.782439,2374.887789 2747.251503,2266.386387"/>
    <poly id="1044356576" type="unknown" color="51,128,255" fill="0" layer="-1.00" shape="2838.768572,2676.733568 3012.361451,2715.797075 3025.006840,2731.652118 3396.391095,2693.352283 3492.697762,2680.320932 3729.848940,2656.010253"/>
    <poly id="1044435586" type="unknown" color="51,128,255" fill="1" layer="-1.00" shape="1915.058984,2026.761168 1913.381269,2040.527500 1910.593353,2063.290390 1863.870008,2057.641038 1865.481254,2044.506851 1867.709353,2026.292128 1872.819218,2021.660444 1915.058984,2026.761168"/>
    <poly id="1044435587" type="building" color="153,128,102,153" fill="1" layer="-2.00" shape="1865.481254,2044.506851 1882.385894,2046.560294 1898.754144,2048.543460 1901.403495,2048.862129 1902.600802,2039.177764 1913.381269,2040.527500 1910.593353,2063.290390 1863.870008,2057.641038 1865.481254,2044.506851"/>
    <poly id="1044435588" type="building" color="153,128,102,153" fill="1" layer="-2.00" shape="1887.346966,2023.745945 1912.952136,2026.966768 1914.968230,2028.766913 1913.381269,2040.527500 1902.600802,2039.177764 1899.951301,2038.848022 1883.571590,2036.809636 1885.071091,2024.917327 1887.346966,2023.745945"/>
    <poly id="1044435589" type="building" color="153,128,102,153" fill="1" layer="-2.00" shape="1898.754144,2048.543460 1899.951301,2038.848022 1883.571590,2036.809636 1882.385894,2046.560294 1898.754144,2048.543460"/>
    <poly id="1044435591" type="building" color="153,128,102,153" fill="1" layer="-2.00" shape="2512.525138,2046.323141 2525.168630,2047.659173 2522.504621,2072.513319 2509.850435,2071.177435 2512.525138,2046.323141"/>
    <poly id="1044435592" type="unknown" color="51,128,255" fill="1" layer="-1.00" shape="2509.850435,2071.177435 2522.504621,2072.513319 2525.168630,2047.659173 2512.525138,2046.323141 2509.850435,2071.177435"/>
    <poly id="1044435593" type="building" color="153,128,102,153" fill="1" layer="-2.00" shape="3310.039580,3655.830678 3315.389402,3656.323623 3314.404941,3666.735897 3344.863618,3669.549499 3345.759326,3660.500596 3349.227679,3625.347536 3350.034775,3617.673075 3350.887663,3605.435264 3329.863338,3603.480564 3329.591682,3606.374683 3329.273039,3609.756716 3314.102616,3608.354659 3313.007972,3620.130589 3315.305586,3622.979124 3313.899592,3638.679645 3311.463710,3640.683643 3311.350707,3641.836919 3310.039580,3655.830678"/>
    <poly id="1044435594" type="building" color="153,128,102,153" fill="1" layer="-2.00" shape="3319.018685,3652.288018 3335.058039,3653.811297 3334.748170,3657.049242 3318.708819,3655.525964 3319.018685,3652.288018"/>
    <poly id="1044435595" type="building" color="153,128,102,153" fill="1" layer="-2.00" shape="3326.077108,3642.071026 3335.663790,3643.105098 3337.790060,3623.629543 3328.214076,3622.595325 3326.077108,3642.071026"/>
    <poly id="1044435596" type="unknown" color="51,128,255" fill="1" layer="-1.00" shape="3311.350707,3641.836919 3298.092341,3639.290659 3303.946709,3604.005859 3329.591682,3606.374683 3329.863338,3603.480564 3350.887663,3605.435264 3350.034775,3617.673075 3349.227679,3625.347536 3345.759326,3660.500596 3344.863618,3669.549499 3314.404941,3666.735897 3315.389402,3656.323623 3310.039580,3655.830678 3311.350707,3641.836919"/>
    <poly id="1044435597" type="unknown" color="51,128,255" fill="1" layer="-1.00" shape="3344.863618,3669.549499 3349.176154,3670.144980 3390.331467,3674.520469 3391.322058,3665.359551 3395.270758,3630.089315 3396.067312,3622.426074 3350.034775,3617.673075 3349.227679,3625.347536 3345.759326,3660.500596 3344.863618,3669.549499"/>
    <poly id="1044435598" type="building" color="153,128,102,153" fill="1" layer="-2.00" shape="3396.067312,3622.426074 3395.270758,3630.089315 3361.783913,3626.640753 3349.227679,3625.347536 3350.034775,3617.673075 3396.067312,3622.426074"/>
    <poly id="1044435599" type="building" color="153,128,102,153" fill="1" layer="-2.00" shape="3361.783913,3626.640753 3358.305578,3661.849314 3350.166730,3660.984057 3345.759326,3660.500596 3349.227679,3625.347536 3361.783913,3626.640753"/>
    <poly id="1044435600" type="building" color="153,128,102,153" fill="1" layer="-2.00" shape="3358.305578,3661.849314 3391.322058,3665.359551 3390.331467,3674.520469 3349.176154,3670.144980 3350.166730,3660.984057 3358.305578,3661.849314"/>
    <poly id="1046473971" type="building" color="153,128,102,153" fill="1" layer="-2.00" shape="2137.964156,2855.034520 2138.343325,2857.742710 2146.231190,2856.639669 2145.841166,2853.920551 2137.964156,2855.034520"/>
    <poly id="1046473972" type="building" color="153,128,102,153" fill="1" layer="-2.00" shape="2149.862036,2860.666219 2160.358040,2861.598998 2160.923902,2856.707431 2150.427896,2855.774651 2149.862036,2860.666219"/>
    <poly id="1046473973" type="building" color="153,128,102,153" fill="1" layer="-2.00" shape="2156.429059,2836.246602 2166.549417,2836.320623 2166.576458,2832.765281 2156.456099,2832.691260 2156.429059,2836.246602"/>
    <poly id="1046473974" type="building" color="153,128,102,153" fill="1" layer="-2.00" shape="2162.804102,2817.444447 2166.244432,2817.663873 2167.260777,2801.702617 2163.820444,2801.483190 2162.804102,2817.444447"/>
    <poly id="1046473975" type="building" color="153,128,102,153" fill="1" layer="-2.00" shape="2275.736841,2866.135313 2280.673845,2866.965848 2283.870229,2848.284092 2278.922515,2847.453699 2275.736841,2866.135313"/>
    <poly id="1046473976" type="building" color="153,128,102,153" fill="1" layer="-2.00" shape="2334.235299,2880.375598 2333.581364,2885.091145 2349.469661,2887.269262 2350.123599,2882.553715 2334.235299,2880.375598"/>
    <poly id="1046473977" type="building" color="153,128,102,153" fill="1" layer="-2.00" shape="2329.974067,2830.342220 2327.587398,2843.951926 2332.191909,2844.742653 2334.578580,2831.132948 2329.974067,2830.342220"/>
    <poly id="1046473978" type="building" color="153,128,102,153" fill="1" layer="-2.00" shape="2347.923019,2838.428613 2345.893113,2853.085605 2351.697031,2853.882329 2353.726940,2839.225339 2347.923019,2838.428613"/>
    <poly id="1046473979" type="building" color="153,128,102,153" fill="1" layer="-2.00" shape="2327.623534,2858.558943 2352.310624,2862.866703 2353.086362,2858.448533 2328.399267,2854.140770 2327.623534,2858.558943"/>
    <poly id="1046473980" type="building" color="153,128,102,153" fill="1" layer="-2.00" shape="2334.816222,2864.674951 2334.101446,2868.848659 2359.140788,2873.074158 2359.855568,2868.900451 2334.816222,2864.674951"/>
    <poly id="1046473981" type="building" color="153,128,102,153" fill="1" layer="-2.00" shape="2327.633785,2872.834067 2350.935182,2878.411929 2352.101236,2873.556588 2328.810690,2867.989653 2327.633785,2872.834067"/>
    <poly id="1046473982" type="building" color="153,128,102,153" fill="1" layer="-2.00" shape="2308.967329,2881.435831 2329.705670,2885.143352 2330.593056,2880.269614 2309.854561,2876.551018 2308.967329,2881.435831"/>
    <poly id="1046473983" type="building" color="153,128,102,153" fill="1" layer="-2.00" shape="2258.857220,2838.864288 2262.451460,2839.380671 2265.561337,2818.252570 2261.967094,2817.736186 2258.857220,2838.864288"/>
    <poly id="1046479148" type="building" color="153,128,102,153" fill="1" layer="-2.00" shape="2492.933238,3307.536910 2491.641287,3313.379585 2495.024300,3314.120330 2496.316252,3308.277655 2492.933238,3307.536910"/>
    <poly id="1046479149" type="building" color="153,128,102,153" fill="1" layer="-2.00" shape="2427.117514,3304.857266 2438.948089,3308.695877 2440.614625,3303.634453 2428.784047,3299.795842 2427.117514,3304.857266"/>
    <poly id="1046479150" type="building" color="153,128,102,153" fill="1" layer="-2.00" shape="2463.074562,3287.317980 2470.122955,3288.297299 2471.656340,3277.323798 2464.608093,3276.355550 2463.074562,3287.317980"/>
    <poly id="1046479151" type="building" color="153,128,102,153" fill="1" layer="-2.00" shape="2500.193664,3292.455111 2504.659042,3293.258805 2507.280028,3278.759994 2502.814796,3277.967372 2500.193664,3292.455111"/>
    <poly id="1046479152" type="building" color="153,128,102,153" fill="1" layer="-2.00" shape="2388.600478,3323.926189 2391.629298,3324.605241 2394.963787,3309.819924 2391.935113,3309.151944 2388.600478,3323.926189"/>
    <poly id="1046479153" type="building" color="153,128,102,153" fill="1" layer="-2.00" shape="2481.502169,3290.425437 2485.960570,3291.506088 2488.671040,3280.472439 2484.201931,3279.391931 2481.502169,3290.425437"/>
    <poly id="1046479154" type="building" color="153,128,102,153" fill="1" layer="-2.00" shape="2459.715385,3272.445636 2469.803043,3274.879105 2470.837808,3270.612495 2460.760854,3268.178881 2459.715385,3272.445636"/>
    <poly id="1046479155" type="building" color="153,128,102,153" fill="1" layer="-2.00" shape="2474.896309,3289.705947 2478.140594,3290.481781 2481.854007,3275.204100 2478.599013,3274.428409 2474.896309,3289.705947"/>
    <poly id="1046479156" type="building" color="153,128,102,153" fill="1" layer="-2.00" shape="2447.641382,3299.032420 2452.149886,3299.857672 2454.067369,3289.576699 2449.548009,3288.740518 2447.641382,3299.032420"/>
    <poly id="1046479157" type="building" color="153,128,102,153" fill="1" layer="-2.00" shape="2466.336892,3316.466881 2480.589059,3318.833191 2481.352591,3314.304442 2467.100271,3311.927059 2466.336892,3316.466881"/>
    <poly id="1046479158" type="building" color="153,128,102,153" fill="1" layer="-2.00" shape="2461.921033,3361.478453 2458.127387,3381.131720 2462.765242,3382.021677 2466.558742,3362.357339 2461.921033,3361.478453"/>
    <poly id="1046770985" type="building" color="153,128,102,153" fill="1" layer="-2.00" shape="1903.269880,2068.151257 1902.143727,2084.700983 1905.109797,2084.683140 1906.539773,2068.428336 1903.269880,2068.151257"/>
    <poly id="1046770986" type="building" color="153,128,102,153" fill="1" layer="-2.00" shape="1988.809439,2078.360724 1987.527610,2090.515876 1992.289018,2091.016505 1993.570700,2078.850281 1988.809439,2078.360724"/>
    <poly id="1046770987" type="building" color="153,128,102,153" fill="1" layer="-2.00" shape="1974.377849,2077.049098 1972.487815,2094.926998 1976.841769,2095.388817 1978.742513,2077.510774 1974.377849,2077.049098"/>
    <poly id="1046770988" type="building" color="153,128,102,153" fill="1" layer="-2.00" shape="1916.317372,2070.057385 1915.392590,2087.246726 1919.711293,2087.476441 1920.625372,2070.287245 1916.317372,2070.057385"/>
    <poly id="1046770989" type="building" color="153,128,102,153" fill="1" layer="-2.00" shape="1937.979365,2072.312519 1935.768604,2090.227975 1940.541767,2090.805957 1942.752532,2072.890502 1937.979365,2072.312519"/>
    <poly id="1046770990" type="building" color="153,128,102,153" fill="1" layer="-2.00" shape="2000.194903,2081.695789 1999.384119,2089.868772 2016.915915,2091.581615 2017.641687,2084.251457 2007.916190,2083.308294 2008.001059,2082.454399 2000.194903,2081.695789"/>
    <poly id="1046770991" type="building" color="153,128,102,153" fill="1" layer="-2.00" shape="1932.697566,2070.545325 1931.047697,2087.965933 1935.229302,2088.352545 1936.879323,2070.943011 1932.697566,2070.545325"/>
    <poly id="1046770992" type="building" color="153,128,102,153" fill="1" layer="-2.00" shape="1948.815692,2073.041332 1947.165514,2090.439791 1951.497310,2090.846531 1953.147492,2073.448072 1948.815692,2073.041332"/>
    <poly id="1046770993" type="building" color="153,128,102,153" fill="1" layer="-2.00" shape="1956.592463,2074.797044 1955.045872,2091.142008 1959.838805,2091.597906 1961.385249,2075.241870 1956.592463,2074.797044"/>
    <poly id="1046770994" type="building" color="153,128,102,153" fill="1" layer="-2.00" shape="2036.618743,1949.260925 2029.381199,1948.583232 2028.790085,1954.781954 2036.027627,1955.459646 2036.618743,1949.260925"/>
    <poly id="1046770998" type="building" color="153,128,102,153" fill="1" layer="-2.00" shape="1932.352774,1938.528401 1930.702130,1955.893642 1934.026020,1956.203224 1935.665960,1938.838127 1932.352774,1938.528401"/>
    <poly id="1046770999" type="building" color="153,128,102,153" fill="1" layer="-2.00" shape="1921.552897,1936.536576 1919.743533,1955.631614 1924.257671,1956.058044 1926.067039,1936.963008 1921.552897,1936.536576"/>
    <poly id="1046771000" type="building" color="153,128,102,153" fill="1" layer="-2.00" shape="1906.184718,1936.455822 1905.678802,1941.822801 1918.341775,1943.003197 1918.847694,1937.636218 1906.184718,1936.455822"/>
    <poly id="1046773357" type="building" color="153,128,102,153" fill="1" layer="-2.00" shape="1925.109548,1954.905865 1930.362158,1955.300191 1931.748673,1937.406925 1926.495910,1937.001525 1925.109548,1954.905865"/>
    <poly id="1046773358" type="building" color="153,128,102,153" fill="1" layer="-2.00" shape="1976.714111,2073.207907 1995.405836,2075.170893 1995.785153,2071.533279 1977.104131,2069.570147 1976.714111,2073.207907"/>
    <poly id="1046773359" type="building" color="153,128,102,153" fill="1" layer="-2.00" shape="1906.539773,2068.428336 1905.109797,2084.683140 1910.759872,2085.171770 1912.189851,2068.916966 1906.539773,2068.428336"/>
    <poly id="1046773360" type="building" color="153,128,102,153" fill="1" layer="-2.00" shape="2048.845179,2100.022121 2058.696310,2100.753188 2059.095483,2095.409805 2049.244499,2094.689810 2048.845179,2100.022121"/>
    <poly id="1046773361" type="building" color="153,128,102,153" fill="1" layer="-2.00" shape="1779.482567,2012.187803 1776.858523,2032.800027 1786.856071,2034.060591 1789.479974,2013.437297 1779.482567,2012.187803"/>
    <poly id="1046773362" type="building" color="153,128,102,153" fill="1" layer="-2.00" shape="1715.039487,1929.797341 1707.428975,1953.865718 1712.289677,1955.372753 1719.889635,1931.315596 1715.039487,1929.797341"/>
    <poly id="1046773363" type="building" color="153,128,102,153" fill="1" layer="-2.00" shape="1774.634295,1971.110614 1779.619884,1972.350185 1784.924044,1951.159154 1779.949308,1949.930510 1774.634295,1971.110614"/>
    <poly id="1046773364" type="building" color="153,128,102,153" fill="1" layer="-2.00" shape="1779.949308,1949.930510 1775.930765,1948.932613 1770.626611,1970.123647 1774.634295,1971.110614 1779.949308,1949.930510"/>
    <poly id="1046773365" type="building" color="153,128,102,153" fill="1" layer="-2.00" shape="1668.639788,1914.830128 1662.217027,1936.446062 1671.119049,1939.050332 1677.541967,1917.445475 1668.639788,1914.830128"/>
    <poly id="1046773366" type="building" color="153,128,102,153" fill="1" layer="-2.00" shape="1743.408738,1964.056374 1764.449773,1969.487106 1771.179928,1946.837122 1750.281154,1940.839650 1743.408738,1964.056374"/>
    <poly id="1046775777" type="building" color="153,128,102,153" fill="1" layer="-2.00" shape="2634.573765,2030.550006 2630.529102,2079.354995 2651.519778,2081.077181 2655.564486,2032.272204 2634.573765,2030.550006"/>
    <poly id="1046775778" type="building" color="153,128,102,153" fill="1" layer="-2.00" shape="2492.992574,2049.509680 2491.351294,2070.784033 2495.135235,2071.065354 2496.787375,2049.801930 2492.992574,2049.509680"/>
    <poly id="1046775779" type="building" color="153,128,102,153" fill="1" layer="-2.00" shape="2435.536684,2039.673378 2431.216504,2039.332835 2429.423495,2062.060026 2433.732964,2062.400712 2435.536684,2039.673378"/>
    <poly id="1046775780" type="building" color="153,128,102,153" fill="1" layer="-2.00" shape="2433.732964,2062.400712 2438.213889,2062.750165 2440.006907,2040.022976 2435.536684,2039.673378 2433.732964,2062.400712"/>
    <poly id="1046775781" type="building" color="153,128,102,153" fill="1" layer="-2.00" shape="2442.576891,2063.090132 2448.697882,2063.561485 2450.490910,2040.834298 2444.369913,2040.362944 2442.576891,2063.090132"/>
    <poly id="1046775782" type="building" color="153,128,102,153" fill="1" layer="-2.00" shape="2438.213889,2062.750165 2442.576891,2063.090132 2444.369913,2040.362944 2440.006907,2040.022976 2438.213889,2062.750165"/>
    <poly id="1046775783" type="building" color="153,128,102,153" fill="1" layer="-2.00" shape="2416.225109,2038.593265 2415.317548,2057.886470 2425.722277,2058.377681 2426.640554,2039.084333 2416.225109,2038.593265"/>
    <poly id="1046775784" type="building" color="153,128,102,153" fill="1" layer="-2.00" shape="2347.442049,2026.572888 2344.874115,2050.595195 2354.375490,2051.596895 2356.943285,2027.563518 2347.442049,2026.572888"/>
    <poly id="1046775785" type="building" color="153,128,102,153" fill="1" layer="-2.00" shape="2500.264300,2102.869198 2497.744844,2126.525346 2507.385505,2127.536305 2509.904970,2103.880160 2500.264300,2102.869198"/>
    <poly id="1046775786" type="building" color="153,128,102,153" fill="1" layer="-2.00" shape="2580.581177,2126.905866 2607.127878,2130.092635 2607.831119,2124.257910 2581.284560,2121.082212 2580.581177,2126.905866"/>
    <poly id="1046775787" type="building" color="153,128,102,153" fill="1" layer="-2.00" shape="2549.281054,2052.971753 2546.359741,2077.009829 2556.002354,2078.164757 2558.923676,2054.126684 2549.281054,2052.971753"/>
    <poly id="1046782302" type="building" color="153,128,102,153" fill="1" layer="-2.00" shape="3074.233611,2180.881557 3076.942843,2189.649482 3117.714818,2177.229928 3115.016309,2168.461857 3074.233611,2180.881557"/>
    <poly id="1046782303" type="building" color="153,128,102,153" fill="1" layer="-2.00" shape="3202.274200,2104.995617 3219.494645,2105.074530 3220.415438,2076.345748 3212.393922,2076.287310 3203.193719,2088.138813 3202.274200,2104.995617"/>
    <poly id="1046782304" type="building" color="153,128,102,153" fill="1" layer="-2.00" shape="3210.772015,2160.476002 3215.546126,2160.334389 3215.075716,2143.640215 3210.312160,2143.770612 3210.772015,2160.476002"/>
    <poly id="1046782305" type="building" color="153,128,102,153" fill="1" layer="-2.00" shape="3220.392359,2159.981391 3224.406597,2159.872129 3224.010532,2145.524772 3219.985585,2145.634177 3220.392359,2159.981391"/>
    <poly id="1046782306" type="building" color="153,128,102,153" fill="1" layer="-2.00" shape="3257.268187,2076.681669 3256.859625,2106.079115 3273.653729,2106.307763 3274.084524,2088.139655 3262.788381,2073.883227 3257.268187,2076.681669"/>
    <poly id="1046784456" type="building" color="153,128,102,153" fill="1" layer="-2.00" shape="3274.105235,1649.198141 3275.925783,1666.760153 3287.111777,1665.613349 3285.291239,1648.051338 3274.105235,1649.198141"/>
    <poly id="1046784457" type="building" color="153,128,102,153" fill="1" layer="-2.00" shape="3255.925233,1694.150192 3257.227691,1699.437441 3280.154956,1693.836137 3278.852504,1688.548887 3255.925233,1694.150192"/>
    <poly id="1046784458" type="building" color="153,128,102,153" fill="1" layer="-2.00" shape="3269.669820,1572.433266 3270.198775,1583.921586 3289.140464,1582.958668 3288.611519,1571.470349 3269.669820,1572.433266"/>
    <poly id="1046784459" type="building" color="153,128,102,153" fill="1" layer="-2.00" shape="3310.429783,1531.087650 3311.669435,1549.255480 3362.294495,1548.786794 3361.721712,1529.236777 3310.429783,1531.087650"/>
    <poly id="1046784460" type="building" color="153,128,102,153" fill="1" layer="-2.00" shape="3274.233803,1630.048460 3275.397872,1642.580345 3294.318403,1640.842485 3293.165201,1628.321531 3274.233803,1630.048460"/>
    <poly id="1046784461" type="building" color="153,128,102,153" fill="1" layer="-2.00" shape="3270.071893,1635.121091 3248.495011,1636.817094 3249.875260,1654.285344 3271.462831,1652.589196 3270.071893,1635.121091"/>
    <poly id="1046784462" type="building" color="153,128,102,153" fill="1" layer="-2.00" shape="3269.552518,1594.019204 3289.366953,1593.454333 3289.247299,1589.325120 3269.443716,1589.900918 3269.552518,1594.019204"/>
    <poly id="1046784463" type="building" color="153,128,102,153" fill="1" layer="-2.00" shape="3269.861521,1547.612552 3286.856367,1546.808654 3286.002590,1528.668869 3269.007581,1529.461692 3269.861521,1547.612552"/>
    <poly id="1046784464" type="building" color="153,128,102,153" fill="1" layer="-2.00" shape="3268.829278,1552.886829 3269.046030,1557.867483 3287.850483,1557.050379 3287.633736,1552.069725 3268.829278,1552.886829"/>
    <poly id="1046784465" type="building" color="153,128,102,153" fill="1" layer="-2.00" shape="3270.931438,1597.024063 3271.309527,1602.855296 3290.087179,1601.639861 3289.709244,1595.819702 3270.931438,1597.024063"/>
    <poly id="1046784466" type="building" color="153,128,102,153" fill="1" layer="-2.00" shape="3307.311615,1719.319837 3292.090494,1722.215189 3295.751693,1741.280795 3310.972949,1738.396516 3307.311615,1719.319837"/>
    <poly id="1046784467" type="building" color="153,128,102,153" fill="1" layer="-2.00" shape="3275.360294,1675.693856 3252.717497,1680.150661 3253.796747,1685.562726 3276.439539,1681.105920 3275.360294,1675.693856"/>