<?xml version="1.0" encoding="UTF-8"?>
<trips>
    <trip id="ma_0" depart="0.00" from="694583900#0" to="964171425#5" type="motorbike" />
    
    <trip id="mx_0" depart="0.00" from="694598419#1-AddedOnRampEdge" to="1280219258#0" type="motorbike2" />
    
    <trip id="ca_0" depart="0.00" from="641397122#1" to="408161670#27" type="car" />
    
    <trip id="sv_0" depart="0.00" from="1034028676#2" to="1034028676#2" type="car_suv" />
    
    <trip id="tx_0" depart="0.00" from="673151142#4" to="695446623#1" type="taxi" />
    
    <trip id="bs_0" depart="0.00" from="39368999#2" to="696169688" type="bus" />
    
    <trip id="tk_0" depart="0.00" from="698936203#1" to="302751282-AddedOnRampEdge" type="truck" />
    
    <trip id="dv_0" depart="0.00" from="1279915921" to="779462187#1" type="delivery" />
    
    <trip id="ma_1" depart="0.80" from="295408452#0" to="693885804#0" type="motorbike" />
    
    <trip id="mx_1" depart="1.58" from="295128790#4" to="694715299#1" type="motorbike2" />
    
    <trip id="ma_2" depart="1.60" from="35950897#6" to="295408452#1" type="motorbike" />
    
    <trip id="ma_3" depart="2.40" from="828678876#0" to="118570151#2" type="motorbike" />
    
    <trip id="ca_1" depart="3.00" from="295449625#0" to="295408461#10" type="car" />
    
    <trip id="mx_2" depart="3.16" from="695496039#2" to="39368999#6" type="motorbike2" />
    
    <trip id="ma_4" depart="3.20" from="-673151200#5" to="-39368999#5" type="motorbike" />
    
    <trip id="ma_5" depart="4.00" from="695295268" to="697200467#10" type="motorbike" />
    
    <trip id="mx_3" depart="4.74" from="-118567489#2" to="828678901" type="motorbike2" />
    
    <trip id="ma_6" depart="4.80" from="695502611#0" to="1282340736" type="motorbike" />
    
    <trip id="ma_7" depart="5.60" from="-765351891#3" to="39368999#3" type="motorbike" />
    
    <trip id="ca_2" depart="6.00" from="1280219257#0" to="1280089201#1" type="car" />
    
    <trip id="mx_4" depart="6.32" from="693330103#0" to="1280219265" type="motorbike2" />
    
    <trip id="ma_8" depart="6.40" from="-1279915898#9" to="295449627#4" type="motorbike" />
    
    <trip id="ma_9" depart="7.20" from="-828724775" to="1280614485" type="motorbike" />
    
    <trip id="sv_1" depart="7.50" from="-828678869#1" to="-562701504" type="car_suv" />
    
    <trip id="tx_1" depart="7.50" from="694830397" to="693885804#0" type="taxi" />
    
    <trip id="mx_5" depart="7.90" from="199383481-AddedOnRampEdge" to="199383481" type="motorbike2" />
    
    <trip id="ma_10" depart="8.00" from="695446625#1" to="828678812" type="motorbike" />
    
    <trip id="ma_11" depart="8.80" from="910359052#0" to="35950897#13" type="motorbike" />
    
    <trip id="ca_3" depart="9.00" from="-35950864#24" to="408161670#13" type="car" />
    
    <trip id="bs_1" depart="9.23" from="1280614504#0" to="1391330070#12" type="bus" />
    
    <trip id="mx_6" depart="9.48" from="-676453141" to="695446625#3" type="motorbike2" />
    
    <trip id="ma_12" depart="9.60" from="-1446472838" to="295408452#1" type="motorbike" />
    
    <trip id="ma_13" depart="10.40" from="964171425#6" to="1280089201#1" type="motorbike" />
    
    <trip id="mx_7" depart="11.06" from="828724754#3" to="1280219258#0" type="motorbike2" />
    
    <trip id="ma_14" depart="11.20" from="35950897#13" to="-828678805" type="motorbike" />
    
    <trip id="ma_15" depart="12.00" from="1280219266" to="35950864#0" type="motorbike" />
    
    <trip id="ca_4" depart="12.00" from="1282340737" to="779462187#1" type="car" />
    
    <trip id="tk_1" depart="12.00" from="1096471623#0" to="1034028678" type="truck" />
    
    <trip id="dv_1" depart="12.00" from="39368999#15" to="295408452#7" type="delivery" />
    
    <trip id="mx_8" depart="12.64" from="695496039#3" to="-302751295#23" type="motorbike2" />
    
    <trip id="ma_16" depart="12.80" from="695295267#2" to="372589137#0" type="motorbike" />
    
    <trip id="ma_17" depart="13.60" from="-695054805#0" to="-828678743" type="motorbike" />
    
    <trip id="mx_9" depart="14.22" from="695502611#0" to="295408461#9" type="motorbike2" />
    
    <trip id="ma_18" depart="14.40" from="39368999#10" to="-344692547#3" type="motorbike" />
    
    <trip id="ca_5" depart="15.00" from="694830395#0" to="-676453140#2" type="car" />
    
    <trip id="sv_2" depart="15.00" from="828678860#2" to="828678866" type="car_suv" />
    
    <trip id="tx_2" depart="15.00" from="295408463#1" to="676438752#1" type="taxi" />
    
    <trip id="ma_19" depart="15.20" from="295408462#8" to="295408452#6" type="motorbike" />
    
    <trip id="mx_10" depart="15.80" from="694775628#0" to="695502614" type="motorbike2" />
    
    <trip id="ma_20" depart="16.00" from="1034028675#6" to="1282340737" type="motorbike" />
    
    <trip id="ma_21" depart="16.80" from="695040105#3" to="1280219257#0" type="motorbike" />
    
    <trip id="mx_11" depart="17.38" from="910359052#8" to="199383481" type="motorbike2" />
    
    <trip id="ma_22" depart="17.60" from="-118575966" to="1034028675#0" type="motorbike" />
    
    <trip id="ca_6" depart="18.00" from="295408462#1" to="118570175" type="car" />
    
    <trip id="ma_23" depart="18.40" from="295449619#0" to="-118672612#2" type="motorbike" />
    
    <trip id="bs_2" depart="18.46" from="676509072#0" to="295408452#10" type="bus" />
    
    <trip id="mx_12" depart="18.96" from="696169688" to="295408468#4" type="motorbike2" />
    
    <trip id="ma_24" depart="19.20" from="35950925#3" to="295128790#0" type="motorbike" />
    
    <trip id="ma_25" depart="20.00" from="118673885" to="35950959#5" type="motorbike" />
    
    <trip id="mx_13" depart="20.54" from="118555049#15" to="910359052#9" type="motorbike2" />
    
    <trip id="ma_26" depart="20.80" from="302739242#1" to="-372220804#0" type="motorbike" />
    
    <trip id="ca_7" depart="21.00" from="696168834#0" to="-561913438#6" type="car" />
    
    <trip id="ma_27" depart="21.60" from="295449627#5" to="695504114#4" type="motorbike" />
    
    <trip id="mx_14" depart="22.12" from="694598419#0" to="295408462#1" type="motorbike2" />
    
    <trip id="ma_28" depart="22.40" from="828678874#0" to="695040105#0" type="motorbike" />
    
    <trip id="sv_3" depart="22.50" from="302739240#3" to="676451738#0" type="car_suv" />
    
    <trip id="tx_3" depart="22.50" from="295408452#16-AddedOffRampEdge" to="302751284#3" type="taxi" />
    
    <trip id="ma_29" depart="23.20" from="694830396" to="697200467#1" type="motorbike" />
    
    <trip id="mx_15" depart="23.70" from="1280219266" to="372467084#0" type="motorbike2" />
    
    <trip id="ma_30" depart="24.00" from="693416739#3" to="302751286#0" type="motorbike" />
    
    <trip id="ca_8" depart="24.00" from="694583900#0-AddedOffRampEdge" to="1280089201#0" type="car" />
    
    <trip id="tk_2" depart="24.00" from="694600787" to="828724786" type="truck" />
    
    <trip id="dv_2" depart="24.00" from="695025562#0" to="695504114#1" type="delivery" />
    
    <trip id="ma_31" depart="24.80" from="676438752#5" to="39368999#3" type="motorbike" />
    
    <trip id="mx_16" depart="25.28" from="693885802#0" to="199383481-AddedOnRampEdge" type="motorbike2" />
    
    <trip id="ma_32" depart="25.60" from="695502613" to="295408452#16-AddedOffRampEdge" type="motorbike" />
    
    <trip id="ma_33" depart="26.40" from="1280089222" to="910359052#0" type="motorbike" />
    
    <trip id="mx_17" depart="26.86" from="561913438#5" to="697200467#8" type="motorbike2" />
    
    <trip id="ca_9" depart="27.00" from="295449627#0" to="-698053103" type="car" />
    
    <trip id="ma_34" depart="27.20" from="302751284#3" to="-695090346#0" type="motorbike" />
    
    <trip id="bs_3" depart="27.69" from="-295386152#9" to="689583171#10" type="bus" />
    
    <trip id="ma_35" depart="28.00" from="-302739239#0" to="910359052#3" type="motorbike" />
    
    <trip id="mx_18" depart="28.44" from="35950897#0" to="828678817#0" type="motorbike2" />
    
    <trip id="ma_36" depart="28.80" from="1034028675#0" to="964171425#0" type="motorbike" />
    
    <trip id="ma_37" depart="29.60" from="-35950868#16" to="118566872#11" type="motorbike" />
    
    <trip id="ca_10" depart="30.00" from="295408452#6" to="695504114#0" type="car" />
    
    <trip id="sv_4" depart="30.00" from="694598419#1-AddedOnRampEdge" to="1282340737" type="car_suv" />
    
    <trip id="tx_4" depart="30.00" from="-828678822#1" to="695040102#0" type="taxi" />
    
    <trip id="mx_19" depart="30.02" from="1210918872#1" to="695496039#2" type="motorbike2" />
    
    <trip id="ma_38" depart="30.40" from="-831070297#0" to="1279915897" type="motorbike" />
    
    <trip id="ma_39" depart="31.20" from="118672612#1" to="694601892" type="motorbike" />
    
    <trip id="mx_20" depart="31.60" from="-642475789" to="1279915896#0" type="motorbike2" />
    
    <trip id="ma_40" depart="32.00" from="295408452#16-AddedOffRampEdge" to="693416739#3" type="motorbike" />
    
    <trip id="ma_41" depart="32.80" from="295408452#16-AddedOffRampEdge" to="779462187#1" type="motorbike" />
    
    <trip id="ca_11" depart="33.00" from="693416427" to="698936203#5" type="car" />
    
    <trip id="mx_21" depart="33.18" from="343417844#0" to="-118575972#6" type="motorbike2" />
    
    <trip id="ma_42" depart="33.60" from="295408452#16-AddedOffRampEdge" to="35950925#3" type="motorbike" />
    
    <trip id="ma_43" depart="34.40" from="695040552#1" to="694598419#1-AddedOnRampEdge" type="motorbike" />
    
    <trip id="mx_22" depart="34.76" from="118555049#1" to="695429325#1" type="motorbike2" />
    
    <trip id="ma_44" depart="35.20" from="-39368999#9" to="295408452#7" type="motorbike" />
    
    <trip id="ma_45" depart="36.00" from="695446623#1" to="1282340739" type="motorbike" />
    
    <trip id="ca_12" depart="36.00" from="695496039#3" to="35950897#0" type="car" />
    
    <trip id="tk_3" depart="36.00" from="295408452#6" to="1418093030" type="truck" />
    
    <trip id="dv_3" depart="36.00" from="-895450605" to="1280219259#1" type="delivery" />
    
    <trip id="mx_23" depart="36.34" from="676453138#1" to="-35950942#0" type="motorbike2" />
    
    <trip id="ma_46" depart="36.80" from="-1355319664" to="118555049#10" type="motorbike" />
    
    <trip id="bs_4" depart="36.92" from="1280614485" to="976025288#1" type="bus" />
    
    <trip id="sv_5" depart="37.50" from="694202154#0" to="694772625#0" type="car_suv" />
    
    <trip id="tx_5" depart="37.50" from="295408452#6" to="39368999#10" type="taxi" />
    
    <trip id="ma_47" depart="37.60" from="698046190" to="35950864#22" type="motorbike" />
    
    <trip id="mx_24" depart="37.92" from="295408459#3" to="295408452#6" type="motorbike2" />
    
    <trip id="ma_48" depart="38.40" from="295449627#5" to="408161672#1" type="motorbike" />
    
    <trip id="ca_13" depart="39.00" from="295408452#16-AddedOffRampEdge" to="302751282-AddedOnRampEdge" type="car" />
    
    <trip id="ma_49" depart="39.20" from="695496039#3" to="1034028677#0" type="motorbike" />
    
    <trip id="mx_25" depart="39.50" from="697200467#8" to="-302751295#1" type="motorbike2" />
    
    <trip id="ma_50" depart="40.00" from="-118672444#4" to="295408459#5" type="motorbike" />
    
    <trip id="ma_51" depart="40.80" from="295408452#7" to="695502611#0" type="motorbike" />
    
    <trip id="mx_26" depart="41.08" from="-118673919#2" to="35950882#8" type="motorbike2" />
    
    <trip id="ma_52" depart="41.60" from="1280089201#0" to="302751282" type="motorbike" />
    
    <trip id="ca_14" depart="42.00" from="295408463#1" to="695040105#0" type="car" />
    
    <trip id="ma_53" depart="42.40" from="561667994#1" to="1280219257#0" type="motorbike" />
    
    <trip id="mx_27" depart="42.66" from="35950897#15" to="-39368999#9" type="motorbike2" />
    
    <trip id="ma_54" depart="43.20" from="695295265#0" to="695502614" type="motorbike" />
    
    <trip id="ma_55" depart="44.00" from="295408464#0-AddedOffRampEdge" to="-828724697#1" type="motorbike" />
    
    <trip id="mx_28" depart="44.24" from="676453139#0" to="295408460#2" type="motorbike2" />
    
    <trip id="ma_56" depart="44.80" from="695040552#0" to="-372220804#21" type="motorbike" />
    
    <trip id="ca_15" depart="45.00" from="964171425#4" to="-372220804#22" type="car" />
    
    <trip id="sv_6" depart="45.00" from="-895475668" to="697200467#9" type="car_suv" />
    
    <trip id="tx_6" depart="45.00" from="-295449645" to="408161670#13" type="taxi" />
    
    <trip id="ma_57" depart="45.60" from="118673944#8" to="295408463#0" type="motorbike" />
    
    <trip id="mx_29" depart="45.82" from="295408461#4" to="199383481-AddedOnRampEdge" type="motorbike2" />
    
    <trip id="bs_5" depart="46.15" from="-562701505" to="695510007#0" type="bus" />
    
    <trip id="ma_58" depart="46.40" from="641106173" to="1279915898#6" type="motorbike" />
    
    <trip id="ma_59" depart="47.20" from="295408452#16" to="695502611#1" type="motorbike" />
    
    <trip id="mx_30" depart="47.40" from="408161670#0" to="695295265#0" type="motorbike2" />
    
    <trip id="ma_60" depart="48.00" from="302751285#0" to="35950925#1" type="motorbike" />
    
    <trip id="ca_16" depart="48.00" from="693330103#0" to="779462187#1" type="car" />
    
    <trip id="tk_4" depart="48.00" from="302751284#0" to="-641074760#0" type="truck" />
    
    <trip id="dv_4" depart="48.00" from="-894924691" to="561474244" type="delivery" />
    
    <trip id="ma_61" depart="48.80" from="295449625#0" to="695504114#4" type="motorbike" />
    
    <trip id="mx_31" depart="48.98" from="372467078#2" to="828724742" type="motorbike2" />
    
    <trip id="ma_62" depart="49.60" from="698936203#5" to="405412828#0" type="motorbike" />
    
    <trip id="ma_63" depart="50.40" from="408161670#27" to="698936203#3" type="motorbike" />
    
    <trip id="mx_32" depart="50.56" from="695025562#0" to="35950959#5" type="motorbike2" />
    
    <trip id="ca_17" depart="51.00" from="828678822#1" to="1282340735" type="car" />
    
    <trip id="ma_64" depart="51.20" from="-39368999#15" to="828678904" type="motorbike" />
    
    <trip id="ma_65" depart="52.00" from="695295267#2" to="-118575972#0" type="motorbike" />
    
    <trip id="mx_33" depart="52.14" from="302751284#0" to="828724752#1" type="motorbike2" />
    
    <trip id="sv_7" depart="52.50" from="828724711#0" to="641112951" type="car_suv" />
    
    <trip id="tx_7" depart="52.50" from="828724763#5" to="39368999#13" type="taxi" />
    
    <trip id="ma_66" depart="52.80" from="1034027336#2" to="695025560#0" type="motorbike" />
    
    <trip id="ma_67" depart="53.60" from="694598419#0" to="-641466472" type="motorbike" />
    
    <trip id="mx_34" depart="53.72" from="-118673929#9" to="1280219258#0" type="motorbike2" />
    
    <trip id="ca_18" depart="54.00" from="1034028676#0" to="1282340716" type="car" />
    
    <trip id="ma_68" depart="54.40" from="1280219259#1" to="35950897#10" type="motorbike" />
    
    <trip id="ma_69" depart="55.20" from="-35950882#13" to="-642475789" type="motorbike" />
    
    <trip id="mx_35" depart="55.30" from="693885803#27" to="-676465938#0" type="motorbike2" />
    
    <trip id="bs_6" depart="55.38" from="1280219266" to="695295267#2" type="bus" />
    
    <trip id="ma_70" depart="56.00" from="-828678869#0" to="118567494" type="motorbike" />
    
    <trip id="ma_71" depart="56.80" from="-765351891#3" to="35950897#0" type="motorbike" />
    
    <trip id="mx_36" depart="56.88" from="-828678792" to="694598419#1-AddedOnRampEdge" type="motorbike2" />
    
    <trip id="ca_19" depart="57.00" from="964171425#4" to="-302751295#31" type="car" />
    
    <trip id="ma_72" depart="57.60" from="695502614" to="-641106174" type="motorbike" />
    
    <trip id="ma_73" depart="58.40" from="1280219261" to="404718839" type="motorbike" />
    
    <trip id="mx_37" depart="58.46" from="-118570151#3" to="697869050#1" type="motorbike2" />
    
    <trip id="ma_74" depart="59.20" from="-35950864#22" to="694600787" type="motorbike" />
    
    <trip id="ma_75" depart="60.00" from="696169688" to="-39368999#1" type="motorbike" />
    
    <trip id="ca_20" depart="60.00" from="828724746" to="1391330069#0" type="car" />
    
    <trip id="sv_8" depart="60.00" from="695496039#3" to="910359052#0" type="car_suv" />
    
    <trip id="tx_8" depart="60.00" from="35950868#30" to="693885804#0" type="taxi" />
    
    <trip id="tk_5" depart="60.00" from="295408452#0" to="295408452#16-AddedOffRampEdge" type="truck" />
    
    <trip id="dv_5" depart="60.00" from="295408452#16-AddedOffRampEdge" to="1280219265" type="delivery" />
    
    <trip id="mx_38" depart="60.04" from="-118673944#7" to="1280219258#0" type="motorbike2" />
    
    <trip id="ma_76" depart="60.80" from="695446625#1" to="695496039#2" type="motorbike" />
    
    <trip id="ma_77" depart="61.60" from="689583176#1" to="-35950868#0" type="motorbike" />
    
    <trip id="mx_39" depart="61.62" from="295408468#4" to="1160397532" type="motorbike2" />
    
    <trip id="ma_78" depart="62.40" from="1280614485" to="302751282-AddedOnRampEdge" type="motorbike" />
    
    <trip id="ca_21" depart="63.00" from="295449625#0" to="35950868#14" type="car" />
    
    <trip id="ma_79" depart="63.20" from="694775628#0" to="118672612#0" type="motorbike" />
    
    <trip id="mx_40" depart="63.20" from="1282340736" to="910359052#5" type="motorbike2" />
    
    <trip id="ma_80" depart="64.00" from="695025560#0" to="828678902" type="motorbike" />
    
    <trip id="bs_7" depart="64.61" from="1280219259#1" to="-405962811#1" type="bus" />
    
    <trip id="mx_41" depart="64.78" from="697200467#4" to="697200467#1" type="motorbike2" />
    
    <trip id="ma_81" depart="64.80" from="695496039#3" to="118672464#3" type="motorbike" />
    
    <trip id="ma_82" depart="65.60" from="408161670#25" to="693416427" type="motorbike" />
    
    <trip id="ca_22" depart="66.00" from="295408477" to="964171425#6" type="car" />
    
    <trip id="mx_42" depart="66.36" from="1280219266" to="372589135#1" type="motorbike2" />
    
    <trip id="ma_83" depart="66.40" from="-118672606#9" to="35950868#37" type="motorbike" />
    
    <trip id="ma_84" depart="67.20" from="641397124" to="302751282" type="motorbike" />
    
    <trip id="sv_9" depart="67.50" from="695295265#0" to="295408459#7" type="car_suv" />
    
    <trip id="tx_9" depart="67.50" from="695040552#1" to="302751295#13" type="taxi" />
    
    <trip id="mx_43" depart="67.94" from="-643237805" to="160628085#1" type="motorbike2" />
    
    <trip id="ma_85" depart="68.00" from="1279915896#0" to="372220804#34" type="motorbike" />
    
    <trip id="ma_86" depart="68.80" from="302751284#3" to="118570175" type="motorbike" />
    
    <trip id="ca_23" depart="69.00" from="1279915919" to="695025560#0" type="car" />
    
    <trip id="mx_44" depart="69.52" from="695490087#1" to="-828678812" type="motorbike2" />
    
    <trip id="ma_87" depart="69.60" from="910359052#0" to="910359052#8" type="motorbike" />
    
    <trip id="ma_88" depart="70.40" from="-118566872#7" to="1280089201#1" type="motorbike" />
    
    <trip id="mx_45" depart="71.10" from="-118575975#5" to="-828724683" type="motorbike2" />
    
    <trip id="ma_89" depart="71.20" from="39368999#11" to="695490087#1" type="motorbike" />
    
    <trip id="ma_90" depart="72.00" from="118570151#1" to="295449627#5" type="motorbike" />
    
    <trip id="ca_24" depart="72.00" from="295408452#0" to="694715299#1" type="car" />
    
    <trip id="tk_6" depart="72.00" from="695446625#3" to="295408461#4" type="truck" />
    
    <trip id="dv_6" depart="72.00" from="1279915896#0" to="697200463#1" type="delivery" />
    
    <trip id="mx_46" depart="72.68" from="-676453139#1" to="828678743" type="motorbike2" />
    
    <trip id="ma_91" depart="72.80" from="693885804#0" to="828395782" type="motorbike" />
    
    <trip id="ma_92" depart="73.60" from="695025560#0" to="697200467#8" type="motorbike" />
    
    <trip id="bs_8" depart="73.84" from="694583900#0-AddedOffRampEdge" to="295408462#0" type="bus" />
    
    <trip id="mx_47" depart="74.26" from="118673929#3" to="1034028675#0" type="motorbike2" />
    
    <trip id="ma_93" depart="74.40" from="1392384120#0" to="1282340717#2" type="motorbike" />
    
    <trip id="ca_25" depart="75.00" from="694598419#1-AddedOnRampEdge" to="408161670#18" type="car" />
    
    <trip id="sv_10" depart="75.00" from="693111346#0" to="676451738#1" type="car_suv" />
    
    <trip id="tx_10" depart="75.00" from="694583900#0" to="694601892" type="taxi" />
    
    <trip id="ma_94" depart="75.20" from="-372466118" to="694774375#0" type="motorbike" />
    
    <trip id="mx_48" depart="75.84" from="1282340772" to="1034028678" type="motorbike2" />
    
    <trip id="ma_95" depart="76.00" from="1282340717#1" to="295408463#1" type="motorbike" />
    
    <trip id="ma_96" depart="76.80" from="698936203#7" to="372220804#21" type="motorbike" />
    
    <trip id="mx_49" depart="77.42" from="910359052#7" to="118570168#2" type="motorbike2" />
    
    <trip id="ma_97" depart="77.60" from="295408468#4" to="1034028676#2" type="motorbike" />
    
    <trip id="ca_26" depart="78.00" from="295408459#0" to="1418093030" type="car" />
    
    <trip id="ma_98" depart="78.40" from="35950883#0" to="695295267#0" type="motorbike" />
    
    <trip id="mx_50" depart="79.00" from="694598419#1-AddedOnRampEdge" to="1280219257#0" type="motorbike2" />
    
    <trip id="ma_99" depart="79.20" from="295408462#12" to="295408461#0" type="motorbike" />
    
    <trip id="ma_100" depart="80.00" from="-372220804#33" to="1210918873#1" type="motorbike" />
    
    <trip id="mx_51" depart="80.58" from="-831070296" to="694774375#0" type="motorbike2" />
    
    <trip id="ma_101" depart="80.80" from="693885803#27" to="199383481-AddedOnRampEdge" type="motorbike" />
    
    <trip id="ca_27" depart="81.00" from="694583900#0-AddedOffRampEdge" to="35950925#2" type="car" />
    
    <trip id="ma_102" depart="81.60" from="695025562#0" to="302751282" type="motorbike" />
    
    <trip id="mx_52" depart="82.16" from="561913438#0" to="295408461#0" type="motorbike2" />
    
    <trip id="ma_103" depart="82.40" from="-118570183#4" to="-828724742" type="motorbike" />
    
    <trip id="sv_11" depart="82.50" from="828678810#3" to="199383481-AddedOnRampEdge" type="car_suv" />
    
    <trip id="tx_11" depart="82.50" from="695490086#1" to="696168834#0" type="taxi" />
    
    <trip id="bs_9" depart="83.07" from="35950868#4" to="1034028677#0" type="bus" />
    
    <trip id="ma_104" depart="83.20" from="695496039#2" to="295449625#0" type="motorbike" />
    
    <trip id="mx_53" depart="83.74" from="408161670#0" to="118672608#0" type="motorbike2" />
    
    <trip id="ma_105" depart="84.00" from="828724763#2" to="694598419#1-AddedOnRampEdge" type="motorbike" />
    
    <trip id="ca_28" depart="84.00" from="1034027336#2" to="-118673921#0" type="car" />
    
    <trip id="tk_7" depart="84.00" from="118570147#1" to="1280219260#1" type="truck" />
    
    <trip id="dv_7" depart="84.00" from="295408452#6" to="693885803#27" type="delivery" />
    
    <trip id="ma_106" depart="84.80" from="828678832" to="-372467078#2" type="motorbike" />
    
    <trip id="mx_54" depart="85.32" from="302751295#2" to="1280219260#1" type="motorbike2" />
    
    <trip id="ma_107" depart="85.60" from="343237264#0" to="-302739242#0" type="motorbike" />
    
    <trip id="ma_108" depart="86.40" from="302751295#33" to="-562701498" type="motorbike" />
    
    <trip id="mx_55" depart="86.90" from="-828678811#0" to="1280219258#0" type="motorbike2" />
    
    <trip id="ca_29" depart="87.00" from="910359052#7" to="910359052#3" type="car" />
    
    <trip id="ma_109" depart="87.20" from="-828678912#2" to="118688839#5" type="motorbike" />
    
    <trip id="ma_110" depart="88.00" from="695040105#0" to="295408452#8" type="motorbike" />
    
    <trip id="mx_56" depart="88.48" from="-828724743" to="39368999#1" type="motorbike2" />
    
    <trip id="ma_111" depart="88.80" from="695496039#3" to="199383481-AddedOnRampEdge" type="motorbike" />
    
    <trip id="ma_112" depart="89.60" from="695295265#0" to="695496039#3" type="motorbike" />
    
    <trip id="ca_30" depart="90.00" from="689583171#2" to="199383481-AddedOnRampEdge" type="car" />
    
    <trip id="sv_12" depart="90.00" from="694830397" to="895450605" type="car_suv" />
    
    <trip id="tx_12" depart="90.00" from="696715602" to="642360965#0" type="taxi" />
    
    <trip id="mx_57" depart="90.06" from="673151142#4" to="302737424#1" type="motorbike2" />
    
    <trip id="ma_113" depart="90.40" from="35950864#24" to="698046188#1" type="motorbike" />
    
    <trip id="ma_114" depart="91.20" from="295408468#4" to="295449625#1" type="motorbike" />
    
    <trip id="mx_58" depart="91.64" from="408161670#18" to="302751284#3" type="motorbike2" />
    
    <trip id="ma_115" depart="92.00" from="372220804#34" to="828678903" type="motorbike" />
    
    <trip id="bs_10" depart="92.30" from="695510007#1" to="295449625#0" type="bus" />
    
    <trip id="ma_116" depart="92.80" from="372464927" to="1391330070#0" type="motorbike" />
    
    <trip id="ca_31" depart="93.00" from="-118570167#0" to="-39368999#9" type="car" />
    
    <trip id="mx_59" depart="93.22" from="-641077469" to="910359052#8" type="motorbike2" />
    
    <trip id="ma_117" depart="93.60" from="1034028676#1" to="372464931#3" type="motorbike" />
    
    <trip id="ma_118" depart="94.40" from="689583171#4" to="295408452#5" type="motorbike" />
    
    <trip id="mx_60" depart="94.80" from="673151142#3" to="695490086#1" type="motorbike2" />
    
    <trip id="ma_119" depart="95.20" from="-35950959#3" to="695446625#3" type="motorbike" />
    
    <trip id="ma_120" depart="96.00" from="-695510008#3" to="-35950868#28" type="motorbike" />
    
    <trip id="ca_32" depart="96.00" from="694598419#0" to="643237807#0" type="car" />
    
    <trip id="tk_8" depart="96.00" from="295408452#1" to="828678830" type="truck" />
    
    <trip id="dv_8" depart="96.00" from="695295267#2" to="695295265#0" type="delivery" />
    
    <trip id="mx_61" depart="96.38" from="695490087#1" to="404718839" type="motorbike2" />
    
    <trip id="ma_121" depart="96.80" from="694600787" to="295408452#0" type="motorbike" />
    
    <trip id="sv_13" depart="97.50" from="-39368999#0" to="695446623#1" type="car_suv" />
    
    <trip id="tx_13" depart="97.50" from="689583171#2" to="828678815" type="taxi" />
    
    <trip id="ma_122" depart="97.60" from="694583900#0-AddedOffRampEdge" to="695490087#1" type="motorbike" />
    
    <trip id="mx_62" depart="97.96" from="-372220804#3" to="295386152#8" type="motorbike2" />
    
    <trip id="ma_123" depart="98.40" from="408161670#22" to="-698067307#1" type="motorbike" />
    
    <trip id="ca_33" depart="99.00" from="-302751295#18" to="695295265#0" type="car" />
    
    <trip id="ma_124" depart="99.20" from="372220804#23" to="697200467#9" type="motorbike" />
    
    <trip id="mx_63" depart="99.54" from="910359052#9" to="964171425#5" type="motorbike2" />
    
    <trip id="ma_125" depart="100.00" from="694775628#2" to="295408465#2-AddedOnRampEdge" type="motorbike" />
    
    <trip id="ma_126" depart="100.80" from="295408452#1" to="295408461#4" type="motorbike" />
    
    <trip id="mx_64" depart="101.12" from="-118688839#4" to="295394152#0" type="motorbike2" />
    
    <trip id="bs_11" depart="101.53" from="-302751295#1" to="-828678837#1" type="bus" />
    
    <trip id="ma_127" depart="101.60" from="-694738596" to="1279915921" type="motorbike" />
    
    <trip id="ca_34" depart="102.00" from="695295265#0" to="-828678798#1" type="car" />
    
    <trip id="ma_128" depart="102.40" from="1280219261" to="302751284#0" type="motorbike" />
    
    <trip id="mx_65" depart="102.70" from="35950868#5" to="302751282" type="motorbike2" />
    
    <trip id="ma_129" depart="103.20" from="302751295#11" to="693885803#26" type="motorbike" />
    
    <trip id="ma_130" depart="104.00" from="689583171#12" to="-39368999#10" type="motorbike" />
    
    <trip id="mx_66" depart="104.28" from="344692547#0" to="695025562#0" type="motorbike2" />
    
    <trip id="ma_131" depart="104.80" from="118673929#0" to="1280219265" type="motorbike" />
    
    <trip id="ca_35" depart="105.00" from="295128790#4" to="-828678789" type="car" />
    
    <trip id="sv_14" depart="105.00" from="1280614485" to="295408452#6" type="car_suv" />
    
    <trip id="tx_14" depart="105.00" from="828724699#2" to="160628085#0" type="taxi" />
    
    <trip id="ma_132" depart="105.60" from="689583171#12" to="1210918873#1" type="motorbike" />
    
    <trip id="mx_67" depart="105.86" from="828678803#1" to="295408461#5" type="motorbike2" />
    
    <trip id="ma_133" depart="106.40" from="694601892" to="295408452#7" type="motorbike" />
    
    <trip id="ma_134" depart="107.20" from="695496042#0" to="1282340736" type="motorbike" />
    
    <trip id="mx_68" depart="107.44" from="295408452#8" to="-118570159#13" type="motorbike2" />
    
    <trip id="ma_135" depart="108.00" from="295408452#6" to="694600787" type="motorbike" />
    
    <trip id="ca_36" depart="108.00" from="697200467#8" to="673151142#3" type="car" />
    
    <trip id="tk_9" depart="108.00" from="1391330069#1" to="295408452#5" type="truck" />
    
    <trip id="dv_9" depart="108.00" from="1280219260#0" to="295408452#1" type="delivery" />
    
    <trip id="ma_136" depart="108.80" from="1391330070#4" to="1282340716" type="motorbike" />
    
    <trip id="mx_69" depart="109.02" from="35950959#9" to="295408468#4" type="motorbike2" />
    
    <trip id="ma_137" depart="109.60" from="1034028675#2" to="1280614505#1" type="motorbike" />
    
    <trip id="ma_138" depart="110.40" from="295408463#1" to="695496039#3" type="motorbike" />
    