<?xml version="1.0" encoding="UTF-8"?>

<!-- generated on 2026-03-20 21:20:17.447201 by Eclipse SUMO randomTrips.py v1_26_0+0000-fa7df22d7f1
<configuration>
    <net-file value="D:\WeSaveTime-ASEAN\sumo\danang\danang.net.xml"/>
    <additional-files value="D:\WeSaveTime-ASEAN\sumo\danang\danang.vtypes.xml"/>
    <weights-prefix value="D:\WeSaveTime-ASEAN\sumo\danang\danang.weights"/>
    <output-trip-file value="D:\WeSaveTime-ASEAN\sumo\danang\danang.sv_.trips.xml"/>
    <prefix value="sv_"/>
    <trip-attributes value="type=&quot;car_suv&quot;"/>
    <fringe-factor value="5"/>
    <random value="True"/>
    <remove-loops value="True"/>
    <end value="600.0"/>
    <period value="7.5"/>
</configuration>
-->

<routes xmlns:xsi="http://www.w3.org/2001/XMLSchema-instance" xsi:noNamespaceSchemaLocation="http://sumo.dlr.de/xsd/routes_file.xsd">
    <trip id="sv_0" depart="0.00" from="697200467#9" to="1280219266" type="car_suv"/>
    <trip id="sv_1" depart="7.50" from="-1467236399" to="697200467#4" type="car_suv"/>
    <trip id="sv_2" depart="15.00" from="663749308#1" to="641092779" type="car_suv"/>
    <trip id="sv_3" depart="22.50" from="295408462#8" to="-35950850#24" type="car_suv"/>
    <trip id="sv_4" depart="30.00" from="1280219266" to="-118570159#6" type="car_suv"/>
    <trip id="sv_5" depart="37.50" from="695040105#5" to="-118555049#0" type="car_suv"/>
    <trip id="sv_6" depart="45.00" from="695295268" to="-828724700#1" type="car_suv"/>
    <trip id="sv_7" depart="52.50" from="295408459#7" to="1280089201#1" type="car_suv"/>
    <trip id="sv_8" depart="60.00" from="-39368999#12" to="-295408470#1" type="car_suv"/>
    <trip id="sv_9" depart="67.50" from="828678794#1" to="-35950868#33" type="car_suv"/>
    <trip id="sv_10" depart="75.00" from="693885804#0" to="695040552#1" type="car_suv"/>
    <trip id="sv_11" depart="82.50" from="295408460#2" to="697200467#4" type="car_suv"/>
    <trip id="sv_12" depart="90.00" from="695040105#5" to="295408477" type="car_suv"/>
    <trip id="sv_13" depart="97.50" from="1034028676#1" to="35950897#0" type="car_suv"/>
    <trip id="sv_14" depart="105.00" from="408161670#20" to="295449627#4" type="car_suv"/>
    <trip id="sv_15" depart="112.50" from="-39368999#1" to="302751295#10" type="car_suv"/>
    <trip id="sv_16" depart="120.00" from="828724790#1" to="694775628#0" type="car_suv"/>
    <trip id="sv_17" depart="127.50" from="694600787" to="-642353277" type="car_suv"/>
    <trip id="sv_18" depart="135.00" from="1279915896#1" to="693885804#0" type="car_suv"/>
    <trip id="sv_19" depart="142.50" from="-828678819" to="828724731" type="car_suv"/>
    <trip id="sv_20" depart="150.00" from="693416739#0" to="828678816#1" type="car_suv"/>
    <trip id="sv_21" depart="157.50" from="1282340717#1" to="693885804#0" type="car_suv"/>
    <trip id="sv_22" depart="165.00" from="695025562#0" to="695504114#0" type="car_suv"/>
    <trip id="sv_23" depart="172.50" from="694600787" to="39368999#4" type="car_suv"/>
    <trip id="sv_24" depart="180.00" from="1034028675#6" to="695490086#1" type="car_suv"/>
    <trip id="sv_25" depart="187.50" from="695030266" to="695504114#0" type="car_suv"/>
    <trip id="sv_26" depart="195.00" from="-372589137#1" to="-828678869#1" type="car_suv"/>
    <trip id="sv_27" depart="202.50" from="694830396" to="302751282-AddedOnRampEdge" type="car_suv"/>
    <trip id="sv_28" depart="210.00" from="295408452#7" to="295408465#2-AddedOnRampEdge" type="car_suv"/>
    <trip id="sv_29" depart="217.50" from="302739240#3" to="694600787" type="car_suv"/>
    <trip id="sv_30" depart="225.00" from="828678868" to="694601892" type="car_suv"/>
    <trip id="sv_31" depart="232.50" from="-561913438#0" to="408161670#25" type="car_suv"/>
    <trip id="sv_32" depart="240.00" from="39368999#15" to="-895477503" type="car_suv"/>
    <trip id="sv_33" depart="247.50" from="35950897#6" to="295449625#1" type="car_suv"/>
    <trip id="sv_34" depart="255.00" from="828678802#1" to="695496039#3" type="car_suv"/>
    <trip id="sv_35" depart="262.50" from="39368999#3" to="-118570149#4" type="car_suv"/>
    <trip id="sv_36" depart="270.00" from="-39368999#20" to="118688839#3" type="car_suv"/>
    <trip id="sv_37" depart="277.50" from="-118688839#1" to="693885802#2" type="car_suv"/>
    <trip id="sv_38" depart="285.00" from="372466115#1" to="1282340716" type="car_suv"/>
    <trip id="sv_39" depart="292.50" from="828678904" to="698046188#1" type="car_suv"/>
    <trip id="sv_40" depart="300.00" from="910359052#0" to="1279259377#1" type="car_suv"/>
    <trip id="sv_41" depart="307.50" from="689583171#0" to="408161670#22" type="car_suv"/>
    <trip id="sv_42" depart="315.00" from="694202154#0" to="1280219259#1" type="car_suv"/>
    <trip id="sv_43" depart="322.50" from="695040552#0" to="695026460#0" type="car_suv"/>
    <trip id="sv_44" depart="330.00" from="910359052#0" to="910359052#7" type="car_suv"/>
    <trip id="sv_45" depart="337.50" from="1280219261" to="295408459#7" type="car_suv"/>
    <trip id="sv_46" depart="345.00" from="1280089201#0" to="1391330070#0" type="car_suv"/>
    <trip id="sv_47" depart="352.50" from="697200467#1" to="295408462#12" type="car_suv"/>
    <trip id="sv_48" depart="360.00" from="695496039#3" to="-642086911" type="car_suv"/>
    <trip id="sv_49" depart="367.50" from="-295449619#1" to="828678909#0" type="car_suv"/>
    <trip id="sv_50" depart="375.00" from="-35950942#0" to="695510007#0" type="car_suv"/>
    <trip id="sv_51" depart="382.50" from="295408464#0" to="695295265#0" type="car_suv"/>
    <trip id="sv_52" depart="390.00" from="302751284#0" to="295408452#16-AddedOffRampEdge" type="car_suv"/>
    <trip id="sv_53" depart="397.50" from="-828724796" to="1282340717#1" type="car_suv"/>
    <trip id="sv_54" depart="405.00" from="694598419#1-AddedOnRampEdge" to="295408452#8" type="car_suv"/>
    <trip id="sv_55" depart="412.50" from="828724711#0" to="295408452#0" type="car_suv"/>
    <trip id="sv_56" depart="420.00" from="-676467950" to="695496039#2" type="car_suv"/>
    <trip id="sv_57" depart="427.50" from="295408462#12" to="1282340736" type="car_suv"/>
    <trip id="sv_58" depart="435.00" from="964171425#4" to="-118566872#4" type="car_suv"/>
    <trip id="sv_59" depart="442.50" from="694598419#0" to="295408452#7" type="car_suv"/>
    <trip id="sv_60" depart="450.00" from="694830396" to="199383481" type="car_suv"/>
    <trip id="sv_61" depart="457.50" from="-561474249#1" to="695490087#1" type="car_suv"/>
    <trip id="sv_62" depart="465.00" from="35950897#15" to="693416427" type="car_suv"/>
    <trip id="sv_63" depart="472.50" from="698936203#1" to="35950882#7" type="car_suv"/>
    <trip id="sv_64" depart="480.00" from="302739240#4" to="695504114#0" type="car_suv"/>
    <trip id="sv_65" depart="487.50" from="-643237805" to="697200467#10" type="car_suv"/>
    <trip id="sv_66" depart="495.00" from="-1355319664" to="-118570163#1" type="car_suv"/>
    <trip id="sv_67" depart="502.50" from="295408452#16-AddedOffRampEdge" to="295128790#0" type="car_suv"/>
    <trip id="sv_68" depart="510.00" from="1034028675#0" to="828678794#1" type="car_suv"/>
    <trip id="sv_69" depart="517.50" from="295408461#4" to="35950897#15" type="car_suv"/>
    <trip id="sv_70" depart="525.00" from="694598419#1-AddedOnRampEdge" to="694598419#1-AddedOnRampEdge" type="car_suv"/>
    <trip id="sv_71" depart="532.50" from="-561474227#1" to="199383481-AddedOnRampEdge" type="car_suv"/>
    <trip id="sv_72" depart="540.00" from="828678837#0" to="-118575975#6" type="car_suv"/>
    <trip id="sv_73" depart="547.50" from="408161670#13" to="695040105#0" type="car_suv"/>
    <trip id="sv_74" depart="555.00" from="1280614504#0" to="693416739#3" type="car_suv"/>
    <trip id="sv_75" depart="562.50" from="1034028675#0" to="295408462#1" type="car_suv"/>
    <trip id="sv_76" depart="570.00" from="160628085#2" to="828678877" type="car_suv"/>
    <trip id="sv_77" depart="577.50" from="295408452#16-AddedOffRampEdge" to="695295267#0" type="car_suv"/>
    <trip id="sv_78" depart="585.00" from="695496039#3" to="1210918873#1" type="car_suv"/>
    <trip id="sv_79" depart="592.50" from="694583900#0-AddedOffRampEdge" to="-828678820" type="car_suv"/>
</routes>
