<?xml version="1.0" encoding="UTF-8"?>

<!-- generated on 2026-03-19 15:48:01.214697 by Eclipse SUMO randomTrips.py v1_26_0+0000-fa7df22d7f1
<configuration>
    <net-file value="D:\WeSaveTime-ASEAN\sumo\danang\danang.net.xml"/>
    <additional-files value="D:\WeSaveTime-ASEAN\sumo\danang\danang.vtypes.xml"/>
    <weights-prefix value="D:\WeSaveTime-ASEAN\sumo\danang\danang.weights"/>
    <output-trip-file value="D:\WeSaveTime-ASEAN\sumo\danang\danang.tk_.trips.xml"/>
    <prefix value="tk_"/>
    <trip-attributes value="type=&quot;truck&quot;"/>
    <fringe-factor value="9"/>
    <random value="True"/>
    <remove-loops value="True"/>
    <end value="900.0"/>
    <period value="6.0"/>
</configuration>
-->

<routes xmlns:xsi="http://www.w3.org/2001/XMLSchema-instance" xsi:noNamespaceSchemaLocation="http://sumo.dlr.de/xsd/routes_file.xsd">
    <trip id="tk_0" depart="0.00" from="1279915921" to="1280614485" type="truck"/>
    <trip id="tk_1" depart="6.00" from="1034028678" to="694601892" type="truck"/>
    <trip id="tk_2" depart="12.00" from="1280089201#2" to="118570159#0" type="truck"/>
    <trip id="tk_3" depart="18.00" from="295408452#0" to="642050078#0" type="truck"/>
    <trip id="tk_4" depart="24.00" from="295128790#4" to="295408465#1" type="truck"/>
    <trip id="tk_5" depart="30.00" from="695446625#3" to="199383481-AddedOnRampEdge" type="truck"/>
    <trip id="tk_6" depart="36.00" from="964171425#0" to="695025560#0" type="truck"/>
    <trip id="tk_7" depart="42.00" from="695040105#3" to="295408461#5" type="truck"/>
    <trip id="tk_8" depart="48.00" from="697200467#11" to="694598419#1" type="truck"/>
    <trip id="tk_9" depart="54.00" from="695295267#0" to="-372220804#32" type="truck"/>
    <trip id="tk_10" depart="60.00" from="295449625#1" to="295408465#2-AddedOnRampEdge" type="truck"/>
    <trip id="tk_11" depart="66.00" from="694601892" to="35950864#24" type="truck"/>
    <trip id="tk_12" depart="72.00" from="697200467#0" to="35950897#0" type="truck"/>
    <trip id="tk_13" depart="78.00" from="1034027336#1" to="295408452#0" type="truck"/>
    <trip id="tk_14" depart="84.00" from="-979325965#1" to="295408452#16-AddedOffRampEdge" type="truck"/>
    <trip id="tk_15" depart="90.00" from="373009311#2" to="910359052#0" type="truck"/>
    <trip id="tk_16" depart="96.00" from="693330103#0" to="118575975#5" type="truck"/>
    <trip id="tk_17" depart="102.00" from="695295267#0" to="828678793#1" type="truck"/>
    <trip id="tk_18" depart="108.00" from="695496039#3" to="-372220804#4" type="truck"/>
    <trip id="tk_19" depart="114.00" from="118688839#6" to="689583176#1" type="truck"/>
    <trip id="tk_20" depart="120.00" from="689583171#11" to="1280219265" type="truck"/>
    <trip id="tk_21" depart="126.00" from="-39368999#3" to="295408463#0" type="truck"/>
    <trip id="tk_22" depart="132.00" from="693885803#1" to="199383481" type="truck"/>
    <trip id="tk_23" depart="138.00" from="118570175" to="1418093030" type="truck"/>
    <trip id="tk_24" depart="144.00" from="295408452#7" to="828724795#1" type="truck"/>
    <trip id="tk_25" depart="150.00" from="-35950868#25" to="295449627#5" type="truck"/>
    <trip id="tk_26" depart="156.00" from="295128790#4" to="295394152#1" type="truck"/>
    <trip id="tk_27" depart="162.00" from="302751284#3" to="118673944#0" type="truck"/>
    <trip id="tk_28" depart="168.00" from="695446623#1" to="-676438752#4" type="truck"/>
    <trip id="tk_29" depart="174.00" from="673151145#1" to="1391330069#1" type="truck"/>
    <trip id="tk_30" depart="180.00" from="302751286#0" to="-828678866" type="truck"/>
    <trip id="tk_31" depart="186.00" from="302751284#3" to="160628085#1" type="truck"/>
    <trip id="tk_32" depart="192.00" from="-828724698" to="964171425#6" type="truck"/>
    <trip id="tk_33" depart="198.00" from="295408459#3" to="118570164#6" type="truck"/>
    <trip id="tk_34" depart="204.00" from="1210918872#1" to="693885804#0" type="truck"/>
    <trip id="tk_35" depart="210.00" from="694601892" to="118570164#5" type="truck"/>
    <trip id="tk_36" depart="216.00" from="641397122#4" to="35950868#29" type="truck"/>
    <trip id="tk_37" depart="222.00" from="-302751295#14" to="697822848#3" type="truck"/>
    <trip id="tk_38" depart="228.00" from="693885804#0" to="910359052#8" type="truck"/>
    <trip id="tk_39" depart="234.00" from="295408452#16-AddedOffRampEdge" to="1282340719" type="truck"/>
    <trip id="tk_40" depart="240.00" from="372589135#0" to="695446625#3" type="truck"/>
    <trip id="tk_41" depart="246.00" from="39368999#9" to="-828678873" type="truck"/>
    <trip id="tk_42" depart="252.00" from="-563780767#1" to="-663749308#1" type="truck"/>
    <trip id="tk_43" depart="258.00" from="-372589137#1" to="295408452#0" type="truck"/>
    <trip id="tk_44" depart="264.00" from="910359052#9" to="295408465#2-AddedOnRampEdge" type="truck"/>
    <trip id="tk_45" depart="270.00" from="-828724716" to="693885804#0" type="truck"/>
    <trip id="tk_46" depart="276.00" from="1391330070#9" to="1391330070#0" type="truck"/>
    <trip id="tk_47" depart="282.00" from="408161670#22" to="1280219258#0" type="truck"/>
    <trip id="tk_48" depart="288.00" from="697200467#11" to="694598419#1-AddedOnRampEdge" type="truck"/>
    <trip id="tk_49" depart="294.00" from="-35950868#12" to="295408462#10" type="truck"/>
    <trip id="tk_50" depart="300.00" from="-828724694#2" to="779462187#0" type="truck"/>
    <trip id="tk_51" depart="306.00" from="693330103#0" to="-828678794#0" type="truck"/>
    <trip id="tk_52" depart="312.00" from="-118555049#9" to="-118575972#2" type="truck"/>
    <trip id="tk_53" depart="318.00" from="118672608#0" to="694715299#1" type="truck"/>
    <trip id="tk_54" depart="324.00" from="-694715297" to="697200467#4" type="truck"/>
    <trip id="tk_55" depart="330.00" from="1282340735" to="693885802#0" type="truck"/>
    <trip id="tk_56" depart="336.00" from="35950897#0" to="39354228#1" type="truck"/>
    <trip id="tk_57" depart="342.00" from="-302751295#25" to="694715298" type="truck"/>
    <trip id="tk_58" depart="348.00" from="1280219266" to="35950925#3" type="truck"/>
    <trip id="tk_59" depart="354.00" from="295408468#0" to="302737424#0" type="truck"/>
    <trip id="tk_60" depart="360.00" from="295408468#0" to="160628085#2" type="truck"/>
    <trip id="tk_61" depart="366.00" from="828678749#1" to="35950925#2" type="truck"/>
    <trip id="tk_62" depart="372.00" from="118570181#4" to="302751282" type="truck"/>
    <trip id="tk_63" depart="378.00" from="689583171#10" to="-118570159#14" type="truck"/>
    <trip id="tk_64" depart="384.00" from="689583171#7" to="302751282-AddedOnRampEdge" type="truck"/>
    <trip id="tk_65" depart="390.00" from="-118575975#0" to="199383481-AddedOnRampEdge" type="truck"/>
    <trip id="tk_66" depart="396.00" from="295408462#12" to="695504114#1" type="truck"/>
    <trip id="tk_67" depart="402.00" from="693111346#0" to="35950925#3" type="truck"/>
    <trip id="tk_68" depart="408.00" from="696169688" to="1280219259#0" type="truck"/>
    <trip id="tk_69" depart="414.00" from="302751284#0" to="295408465#2-AddedOnRampEdge" type="truck"/>
    <trip id="tk_70" depart="420.00" from="694830397" to="695496039#3" type="truck"/>
    <trip id="tk_71" depart="426.00" from="698936203#5" to="35950925#0" type="truck"/>
    <trip id="tk_72" depart="432.00" from="695496039#2" to="698936203#3" type="truck"/>
    <trip id="tk_73" depart="438.00" from="372466118" to="118567886#0" type="truck"/>
    <trip id="tk_74" depart="444.00" from="694583900#0-AddedOffRampEdge" to="1282340735" type="truck"/>
    <trip id="tk_75" depart="450.00" from="118672619#4" to="695295268" type="truck"/>
    <trip id="tk_76" depart="456.00" from="408161670#24" to="689583171#10" type="truck"/>
    <trip id="tk_77" depart="462.00" from="295408459#5" to="295408452#5" type="truck"/>
    <trip id="tk_78" depart="468.00" from="695295268" to="697200467#4" type="truck"/>
    <trip id="tk_79" depart="474.00" from="295408460#3" to="408161670#20" type="truck"/>
    <trip id="tk_80" depart="480.00" from="1280614485" to="695040105#3" type="truck"/>
    <trip id="tk_81" depart="486.00" from="1210918872#1" to="693416739#3" type="truck"/>
    <trip id="tk_82" depart="492.00" from="693885804#0" to="-560329311" type="truck"/>
    <trip id="tk_83" depart="498.00" from="-828678814#0" to="295408462#10" type="truck"/>
    <trip id="tk_84" depart="504.00" from="693416427" to="1279915896#1" type="truck"/>
    <trip id="tk_85" depart="510.00" from="295408459#7" to="693416427" type="truck"/>
    <trip id="tk_86" depart="516.00" from="964171425#6" to="295408452#6" type="truck"/>
    <trip id="tk_87" depart="522.00" from="295408463#0" to="35950897#10" type="truck"/>
    <trip id="tk_88" depart="528.00" from="405113896#1" to="-828678805" type="truck"/>
    <trip id="tk_89" depart="534.00" from="697200467#9" to="1280219258#0" type="truck"/>
    <trip id="tk_90" depart="540.00" from="696168834#1" to="1280219259#0" type="truck"/>
    <trip id="tk_91" depart="546.00" from="-39368999#2" to="118672607#3" type="truck"/>
    <trip id="tk_92" depart="552.00" from="673151142#3" to="408161672#1" type="truck"/>
    <trip id="tk_93" depart="558.00" from="295408464#0-AddedOffRampEdge" to="199383481-AddedOnRampEdge" type="truck"/>
    <trip id="tk_94" depart="564.00" from="1034028678" to="1034028676#2" type="truck"/>
    <trip id="tk_95" depart="570.00" from="910359052#8" to="695446623#1" type="truck"/>
    <trip id="tk_96" depart="576.00" from="302751284#0" to="-343237264#0" type="truck"/>
    <trip id="tk_97" depart="582.00" from="1034027336#1" to="828678814#2" type="truck"/>
    <trip id="tk_98" depart="588.00" from="295408452#7" to="1280219259#1" type="truck"/>
    <trip id="tk_99" depart="594.00" from="1280219266" to="295408452#11" type="truck"/>
    <trip id="tk_100" depart="600.00" from="673151142#4" to="35950897#13" type="truck"/>
    <trip id="tk_101" depart="606.00" from="295408468#0" to="695510007#1" type="truck"/>
    <trip id="tk_102" depart="612.00" from="-39368999#9" to="302751282-AddedOnRampEdge" type="truck"/>
    <trip id="tk_103" depart="618.00" from="295408452#16-AddedOffRampEdge" to="-118570164#1" type="truck"/>
    <trip id="tk_104" depart="624.00" from="-828678874#0" to="694598419#1-AddedOnRampEdge" type="truck"/>
    <trip id="tk_105" depart="630.00" from="-302751295#11" to="-372464931#3" type="truck"/>
    <trip id="tk_106" depart="636.00" from="118575972#1" to="1034028675#6" type="truck"/>
    <trip id="tk_107" depart="642.00" from="39368999#2" to="697200467#0" type="truck"/>
    <trip id="tk_108" depart="648.00" from="695040552#1" to="35950897#0" type="truck"/>
    <trip id="tk_109" depart="654.00" from="673151142#3" to="295408452#10" type="truck"/>
    <trip id="tk_110" depart="660.00" from="828724695" to="-118555049#15" type="truck"/>
    <trip id="tk_111" depart="666.00" from="-35950868#10" to="-35950882#13" type="truck"/>
    <trip id="tk_112" depart="672.00" from="408161670#24" to="295408466#1" type="truck"/>
    <trip id="tk_113" depart="678.00" from="828678741#1" to="295449627#5" type="truck"/>
    <trip id="tk_114" depart="684.00" from="-676458405#3" to="1280219258#0" type="truck"/>
    <trip id="tk_115" depart="690.00" from="408161670#24" to="1418093030" type="truck"/>
    <trip id="tk_116" depart="696.00" from="295128790#4" to="1280219260#0" type="truck"/>
    <trip id="tk_117" depart="702.00" from="-828724749#0" to="118570181#8" type="truck"/>
    <trip id="tk_118" depart="708.00" from="694600787" to="295408462#10" type="truck"/>
    <trip id="tk_119" depart="714.00" from="1280219259#0" to="-676489596#0" type="truck"/>
    <trip id="tk_120" depart="720.00" from="295408452#1" to="295408452#9" type="truck"/>
    <trip id="tk_121" depart="726.00" from="695446625#1" to="-676438752#3" type="truck"/>
    <trip id="tk_122" depart="732.00" from="1034028677#1" to="828724747#0" type="truck"/>
    <trip id="tk_123" depart="738.00" from="562701502#3" to="408161670#20" type="truck"/>
    <trip id="tk_124" depart="744.00" from="295128790#0" to="1418093030" type="truck"/>
    <trip id="tk_125" depart="750.00" from="295408459#3" to="694772625#0" type="truck"/>
    <trip id="tk_126" depart="756.00" from="1034027336#1" to="695295267#0" type="truck"/>
    <trip id="tk_127" depart="762.00" from="295408462#12" to="1280219259#1" type="truck"/>
    <trip id="tk_128" depart="768.00" from="695295267#2" to="295408452#16" type="truck"/>
    <trip id="tk_129" depart="774.00" from="118573603#2" to="302751282-AddedOnRampEdge" type="truck"/>
    <trip id="tk_130" depart="780.00" from="118570167#1" to="35950883#0" type="truck"/>
    <trip id="tk_131" depart="786.00" from="-118672619#3" to="302751282" type="truck"/>
    <trip id="tk_132" depart="792.00" from="118555049#15" to="39354228#1" type="truck"/>
    <trip id="tk_133" depart="798.00" from="693416739#0" to="1280219260#0" type="truck"/>
    <trip id="tk_134" depart="804.00" from="828678864" to="-35950882#5" type="truck"/>
    <trip id="tk_135" depart="810.00" from="295449625#1" to="118575975#6" type="truck"/>
    <trip id="tk_136" depart="816.00" from="118673919#0" to="694600787" type="truck"/>
    <trip id="tk_137" depart="822.00" from="695504114#4" to="695446625#3" type="truck"/>
    <trip id="tk_138" depart="828.00" from="302751295#9" to="695510008#2" type="truck"/>
    <trip id="tk_139" depart="834.00" from="828724775" to="694594970#0" type="truck"/>
    <trip id="tk_140" depart="840.00" from="910359052#7" to="1282340717#2" type="truck"/>
    <trip id="tk_141" depart="846.00" from="1279915896#1" to="1280219259#0" type="truck"/>
    <trip id="tk_142" depart="852.00" from="676489596#1" to="910359052#8" type="truck"/>
    <trip id="tk_143" depart="858.00" from="118673947#0" to="964171425#0" type="truck"/>
    <trip id="tk_144" depart="864.00" from="693416739#3" to="408161670#25" type="truck"/>
    <trip id="tk_145" depart="870.00" from="295408452#11" to="118688839#4" type="truck"/>
    <trip id="tk_146" depart="876.00" from="300949143" to="295408462#12" type="truck"/>
    <trip id="tk_147" depart="882.00" from="1034028677#0" to="-828724711#0" type="truck"/>
    <trip id="tk_148" depart="888.00" from="676453142#1" to="118566873#2" type="truck"/>
    <trip id="tk_149" depart="894.00" from="295408460#3" to="-373009311#2" type="truck"/>
</routes>
