<?xml version="1.0" encoding="UTF-8"?>

<!-- generated on 2026-03-20 21:20:22.583116 by Eclipse SUMO randomTrips.py v1_26_0+0000-fa7df22d7f1
<configuration>
    <net-file value="D:\WeSaveTime-ASEAN\sumo\danang\danang.net.xml"/>
    <additional-files value="D:\WeSaveTime-ASEAN\sumo\danang\danang.vtypes.xml"/>
    <weights-prefix value="D:\WeSaveTime-ASEAN\sumo\danang\danang.weights"/>
    <output-trip-file value="D:\WeSaveTime-ASEAN\sumo\danang\danang.bs_.trips.xml"/>
    <prefix value="bs_"/>
    <trip-attributes value="type=&quot;bus&quot;"/>
    <fringe-factor value="10"/>
    <random value="True"/>
    <remove-loops value="True"/>
    <end value="600.0"/>
    <period value="9.23"/>
</configuration>
-->

<routes xmlns:xsi="http://www.w3.org/2001/XMLSchema-instance" xsi:noNamespaceSchemaLocation="http://sumo.dlr.de/xsd/routes_file.xsd">
    <trip id="bs_0" depart="0.00" from="695502611#1" to="695504114#4" type="bus"/>
    <trip id="bs_1" depart="9.23" from="694598419#1-AddedOnRampEdge" to="779462187#1" type="bus"/>
    <trip id="bs_2" depart="18.46" from="910359052#7" to="694601892" type="bus"/>
    <trip id="bs_3" depart="27.69" from="694594970#0" to="695025562#0" type="bus"/>
    <trip id="bs_4" depart="36.92" from="405412828#0" to="199383481-AddedOnRampEdge" type="bus"/>
    <trip id="bs_5" depart="46.15" from="695502614" to="697200467#11" type="bus"/>
    <trip id="bs_6" depart="55.38" from="35950925#6" to="910359052#5" type="bus"/>
    <trip id="bs_7" depart="64.61" from="1210918872#1" to="408161670#27" type="bus"/>
    <trip id="bs_8" depart="73.84" from="694594970#0" to="695295267#2" type="bus"/>
    <trip id="bs_9" depart="83.07" from="695496039#2" to="1282715056" type="bus"/>
    <trip id="bs_10" depart="92.30" from="695040105#0" to="295408452#16-AddedOffRampEdge" type="bus"/>
    <trip id="bs_11" depart="101.53" from="694830395#0" to="694598419#1-AddedOnRampEdge" type="bus"/>
    <trip id="bs_12" depart="110.76" from="35950925#7" to="1034028675#0" type="bus"/>
    <trip id="bs_13" depart="119.99" from="693885804#0" to="693885802#0" type="bus"/>
    <trip id="bs_14" depart="129.22" from="964171425#4" to="295408468#0" type="bus"/>
    <trip id="bs_15" depart="138.45" from="295408452#16-AddedOffRampEdge" to="295449627#5" type="bus"/>
    <trip id="bs_16" depart="147.68" from="1282340737" to="405962813" type="bus"/>
    <trip id="bs_17" depart="156.91" from="694830397" to="295408459#5" type="bus"/>
    <trip id="bs_18" depart="166.14" from="561426521" to="-828678787#0" type="bus"/>
    <trip id="bs_19" depart="175.37" from="1282340772" to="295408462#10" type="bus"/>
    <trip id="bs_20" depart="184.60" from="-695040102#1" to="295408452#6" type="bus"/>
    <trip id="bs_21" depart="193.83" from="-118570159#15" to="35950864#25" type="bus"/>
    <trip id="bs_22" depart="203.06" from="698936203#5" to="-118672444#1" type="bus"/>
    <trip id="bs_23" depart="212.29" from="-828724749#0" to="1391330070#4" type="bus"/>
    <trip id="bs_24" depart="221.52" from="910359052#3" to="695025560#0" type="bus"/>
    <trip id="bs_25" depart="230.75" from="295128790#0" to="689583171#11" type="bus"/>
    <trip id="bs_26" depart="239.98" from="1280614504#0" to="695502611#0" type="bus"/>
    <trip id="bs_27" depart="249.21" from="39368999#3" to="1034028677#0" type="bus"/>
    <trip id="bs_28" depart="258.44" from="39368999#10" to="118673944#3" type="bus"/>
    <trip id="bs_29" depart="267.67" from="1280614504#0" to="828724724#0" type="bus"/>
    <trip id="bs_30" depart="276.90" from="694598419#0" to="695496039#2" type="bus"/>
    <trip id="bs_31" depart="286.13" from="695040105#0" to="1280219257#0" type="bus"/>
    <trip id="bs_32" depart="295.36" from="695502613" to="1282340718" type="bus"/>
    <trip id="bs_33" depart="304.59" from="-828724757#1" to="1282340736" type="bus"/>
    <trip id="bs_34" depart="313.82" from="673151142#3" to="673151145#0" type="bus"/>
    <trip id="bs_35" depart="323.05" from="693885803#27" to="704621733#1" type="bus"/>
    <trip id="bs_36" depart="332.28" from="-828724700#3" to="295408461#10" type="bus"/>
    <trip id="bs_37" depart="341.51" from="1280089201#1" to="695504114#0" type="bus"/>
    <trip id="bs_38" depart="350.74" from="-35950868#19" to="1280219258#0" type="bus"/>
    <trip id="bs_39" depart="359.97" from="694601892" to="1034028676#1" type="bus"/>
    <trip id="bs_40" depart="369.20" from="-828678814#5" to="-895450605" type="bus"/>
    <trip id="bs_41" depart="378.43" from="694775628#0" to="964171425#5" type="bus"/>
    <trip id="bs_42" depart="387.66" from="695295267#0" to="1280614485" type="bus"/>
    <trip id="bs_43" depart="396.89" from="1034028676#0" to="295128790#0" type="bus"/>
    <trip id="bs_44" depart="406.12" from="-118672612#2" to="302751282-AddedOnRampEdge" type="bus"/>
    <trip id="bs_45" depart="415.35" from="765351891#0" to="695295267#0" type="bus"/>
    <trip id="bs_46" depart="424.58" from="-1279915898#9" to="695510007#0" type="bus"/>
    <trip id="bs_47" depart="433.81" from="408161670#18" to="295408470#2" type="bus"/>
    <trip id="bs_48" depart="443.04" from="689583171#7" to="694600787" type="bus"/>
    <trip id="bs_49" depart="452.27" from="-372220804#4" to="964171425#4" type="bus"/>
    <trip id="bs_50" depart="461.50" from="1096471623#0" to="673151142#3" type="bus"/>
    <trip id="bs_51" depart="470.73" from="561971012" to="39368999#4" type="bus"/>
    <trip id="bs_52" depart="479.96" from="-35950864#20" to="295408452#11" type="bus"/>
    <trip id="bs_53" depart="489.19" from="295408452#5" to="1280614485" type="bus"/>
    <trip id="bs_54" depart="498.42" from="695040105#0" to="673151142#4" type="bus"/>
    <trip id="bs_55" depart="507.65" from="828678813" to="1034028678" type="bus"/>
    <trip id="bs_56" depart="516.88" from="1280089222" to="295408452#5" type="bus"/>
    <trip id="bs_57" depart="526.11" from="695040105#5" to="35950868#18" type="bus"/>
    <trip id="bs_58" depart="535.34" from="695496042#0" to="295408452#7" type="bus"/>
    <trip id="bs_59" depart="544.57" from="118570159#15" to="35950925#1" type="bus"/>
    <trip id="bs_60" depart="553.80" from="1034028675#6" to="695502614" type="bus"/>
    <trip id="bs_61" depart="563.03" from="693111346#0" to="-118688839#6" type="bus"/>
    <trip id="bs_62" depart="572.26" from="695504114#0" to="-39368999#5" type="bus"/>
    <trip id="bs_63" depart="581.49" from="1034028677#1" to="-39368999#12" type="bus"/>
    <trip id="bs_64" depart="590.72" from="673151200#2" to="35950925#1" type="bus"/>
    <trip id="bs_65" depart="599.95" from="-302751295#7" to="1282340735" type="bus"/>
</routes>
