<?xml version="1.0" encoding="UTF-8"?>

<!-- generated on 2026-03-22 02:06:56.987543 by Eclipse SUMO randomTrips.py v1_26_0+0000-fa7df22d7f1
<configuration>
    <net-file value="D:\WeSaveTime-ASEAN\sumo\danang\danang.net.xml"/>
    <additional-files value="D:\WeSaveTime-ASEAN\sumo\danang\danang.vtypes.xml"/>
    <weights-prefix value="D:\WeSaveTime-ASEAN\sumo\danang\danang.weights"/>
    <output-trip-file value="D:\WeSaveTime-ASEAN\sumo\danang\danang.dv_.trips.xml"/>
    <prefix value="dv_"/>
    <trip-attributes value="type=&quot;delivery&quot;"/>
    <fringe-factor value="5"/>
    <random value="True"/>
    <remove-loops value="True"/>
    <end value="600.0"/>
    <period value="12.0"/>
</configuration>
-->

<routes xmlns:xsi="http://www.w3.org/2001/XMLSchema-instance" xsi:noNamespaceSchemaLocation="http://sumo.dlr.de/xsd/routes_file.xsd">
    <trip id="dv_0" depart="0.00" from="118575976#1" to="964171425#3" type="delivery"/>
    <trip id="dv_1" depart="12.00" from="1280089201#1" to="1280219260#0" type="delivery"/>
    <trip id="dv_2" depart="24.00" from="695496039#2" to="-828724711#0" type="delivery"/>
    <trip id="dv_3" depart="36.00" from="-302751295#3" to="-895477503" type="delivery"/>
    <trip id="dv_4" depart="48.00" from="694775628#2" to="-828678746" type="delivery"/>
    <trip id="dv_5" depart="60.00" from="-828678776" to="828678810#4" type="delivery"/>
    <trip id="dv_6" depart="72.00" from="39368999#11" to="-39368999#16" type="delivery"/>
    <trip id="dv_7" depart="84.00" from="-39368999#10" to="39368999#13" type="delivery"/>
    <trip id="dv_8" depart="96.00" from="-673151147#1" to="295408465#1" type="delivery"/>
    <trip id="dv_9" depart="108.00" from="694583900#0-AddedOffRampEdge" to="-828724799#1" type="delivery"/>
    <trip id="dv_10" depart="120.00" from="910359052#9" to="695496040" type="delivery"/>
    <trip id="dv_11" depart="132.00" from="35950897#15" to="295408452#0" type="delivery"/>
    <trip id="dv_12" depart="144.00" from="-828678822#0" to="295128790#0" type="delivery"/>
    <trip id="dv_13" depart="156.00" from="964171425#0" to="408161670#0" type="delivery"/>
    <trip id="dv_14" depart="168.00" from="35950925#0" to="1034028676#1" type="delivery"/>
    <trip id="dv_15" depart="180.00" from="-35950882#2" to="695502611#1" type="delivery"/>
    <trip id="dv_16" depart="192.00" from="-697822848#2" to="295408463#0" type="delivery"/>
    <trip id="dv_17" depart="204.00" from="118575975#2" to="695510008#2" type="delivery"/>
    <trip id="dv_18" depart="216.00" from="695040552#1" to="295408468#5" type="delivery"/>
    <trip id="dv_19" depart="228.00" from="1034027336#0" to="118573597" type="delivery"/>
    <trip id="dv_20" depart="240.00" from="-300949142#0" to="295408452#16-AddedOffRampEdge" type="delivery"/>
    <trip id="dv_21" depart="252.00" from="295408462#10" to="35950864#23" type="delivery"/>
    <trip id="dv_22" depart="264.00" from="694772625#0" to="828678910" type="delivery"/>
    <trip id="dv_23" depart="276.00" from="695040105#0" to="695502614" type="delivery"/>
    <trip id="dv_24" depart="288.00" from="694583900#0" to="118672606#2" type="delivery"/>
    <trip id="dv_25" depart="300.00" from="698936203#8" to="295449625#1" type="delivery"/>
    <trip id="dv_26" depart="312.00" from="1280219260#0" to="295408462#10" type="delivery"/>
    <trip id="dv_27" depart="324.00" from="1034028677#0" to="695496039#1" type="delivery"/>
    <trip id="dv_28" depart="336.00" from="1280089201#1" to="-828724799#0" type="delivery"/>
    <trip id="dv_29" depart="348.00" from="1282340731" to="561474227#0" type="delivery"/>
    <trip id="dv_30" depart="360.00" from="372220804#30" to="693416739#3" type="delivery"/>
    <trip id="dv_31" depart="372.00" from="696169688" to="695504114#4" type="delivery"/>
    <trip id="dv_32" depart="384.00" from="696168834#0" to="-118570159#5" type="delivery"/>
    <trip id="dv_33" depart="396.00" from="1280614504#0" to="35950897#0" type="delivery"/>
    <trip id="dv_34" depart="408.00" from="39368999#21" to="-118570183#2" type="delivery"/>
    <trip id="dv_35" depart="420.00" from="372220804#23" to="695496039#3" type="delivery"/>
    <trip id="dv_36" depart="432.00" from="295408459#1" to="1280219265" type="delivery"/>
    <trip id="dv_37" depart="444.00" from="697200467#10" to="118673892#0" type="delivery"/>
    <trip id="dv_38" depart="456.00" from="694601892" to="-641077473#0" type="delivery"/>
    <trip id="dv_39" depart="468.00" from="828678837#1" to="408161670#27" type="delivery"/>
    <trip id="dv_40" depart="480.00" from="256668722" to="1280089201#2" type="delivery"/>
    <trip id="dv_41" depart="492.00" from="828724708" to="35950897#0" type="delivery"/>
    <trip id="dv_42" depart="504.00" from="1210918872#0" to="295408461#10" type="delivery"/>
    <trip id="dv_43" depart="516.00" from="-673151181" to="-676712674" type="delivery"/>
    <trip id="dv_44" depart="528.00" from="-828724704" to="694737115#1" type="delivery"/>
    <trip id="dv_45" depart="540.00" from="372467078#1" to="676438753#2" type="delivery"/>
    <trip id="dv_46" depart="552.00" from="964171425#6" to="199383481-AddedOnRampEdge" type="delivery"/>
    <trip id="dv_47" depart="564.00" from="693885803#27" to="295408461#4" type="delivery"/>
    <trip id="dv_48" depart="576.00" from="295408459#7" to="321069035#0" type="delivery"/>
    <trip id="dv_49" depart="588.00" from="295408464#0" to="-676453140#3" type="delivery"/>
</routes>
