<?xml version="1.0" encoding="UTF-8"?>

<!-- generated on 2026-03-21 14:11:59.033126 by Eclipse SUMO randomTrips.py v1_26_0+0000-fa7df22d7f1
<configuration>
    <net-file value="D:\WeSaveTime-ASEAN\sumo\danang\danang.net.xml"/>
    <additional-files value="D:\WeSaveTime-ASEAN\sumo\danang\danang.vtypes.xml"/>
    <weights-prefix value="D:\WeSaveTime-ASEAN\sumo\danang\danang.weights"/>
    <output-trip-file value="D:\WeSaveTime-ASEAN\sumo\danang\danang.dv_.trips.xml"/>
    <prefix value="dv_"/>
    <trip-attributes value="type=&quot;delivery&quot;"/>
    <fringe-factor value="5"/>
    <random value="True"/>
    <remove-loops value="True"/>
    <end value="600.0"/>
    <period value="12.0"/>
</configuration>
-->

<routes xmlns:xsi="http://www.w3.org/2001/XMLSchema-instance" xsi:noNamespaceSchemaLocation="http://sumo.dlr.de/xsd/routes_file.xsd">
    <trip id="dv_0" depart="0.00" from="1279915921" to="779462187#1" type="delivery"/>
    <trip id="dv_1" depart="12.00" from="39368999#15" to="295408452#7" type="delivery"/>
    <trip id="dv_2" depart="24.00" from="695025562#0" to="695504114#1" type="delivery"/>
    <trip id="dv_3" depart="36.00" from="-895450605" to="1280219259#1" type="delivery"/>
    <trip id="dv_4" depart="48.00" from="-894924691" to="561474244" type="delivery"/>
    <trip id="dv_5" depart="60.00" from="295408452#16-AddedOffRampEdge" to="1280219265" type="delivery"/>
    <trip id="dv_6" depart="72.00" from="1279915896#0" to="697200463#1" type="delivery"/>
    <trip id="dv_7" depart="84.00" from="295408452#6" to="693885803#27" type="delivery"/>
    <trip id="dv_8" depart="96.00" from="695295267#2" to="695295265#0" type="delivery"/>
    <trip id="dv_9" depart="108.00" from="1280219260#0" to="295408452#1" type="delivery"/>
    <trip id="dv_10" depart="120.00" from="693416739#0" to="697200467#10" type="delivery"/>
    <trip id="dv_11" depart="132.00" from="-828678808" to="693885802#2" type="delivery"/>
    <trip id="dv_12" depart="144.00" from="1282340737" to="-372466114#3" type="delivery"/>
    <trip id="dv_13" depart="156.00" from="295408464#0-AddedOffRampEdge" to="1418093030" type="delivery"/>
    <trip id="dv_14" depart="168.00" from="694774375#0" to="295408452#8" type="delivery"/>
    <trip id="dv_15" depart="180.00" from="-118570168#9" to="693885802#2" type="delivery"/>
    <trip id="dv_16" depart="192.00" from="295408460#2" to="295408452#6" type="delivery"/>
    <trip id="dv_17" depart="204.00" from="295128790#0" to="35950897#13" type="delivery"/>
    <trip id="dv_18" depart="216.00" from="295408459#1" to="408161670#24" type="delivery"/>
    <trip id="dv_19" depart="228.00" from="694830397" to="560329314" type="delivery"/>
    <trip id="dv_20" depart="240.00" from="-35950882#5" to="828678788#1" type="delivery"/>
    <trip id="dv_21" depart="252.00" from="1076293830#1" to="1280614485" type="delivery"/>
    <trip id="dv_22" depart="264.00" from="696168834#0" to="408161670#18" type="delivery"/>
    <trip id="dv_23" depart="276.00" from="1034028676#0" to="-372220804#22" type="delivery"/>
    <trip id="dv_24" depart="288.00" from="1282340772" to="828724754#2" type="delivery"/>
    <trip id="dv_25" depart="300.00" from="295408452#16-AddedOffRampEdge" to="295408452#7" type="delivery"/>
    <trip id="dv_26" depart="312.00" from="-828678862#0" to="1034028676#1" type="delivery"/>
    <trip id="dv_27" depart="324.00" from="695496039#3" to="695025562#0" type="delivery"/>
    <trip id="dv_28" depart="336.00" from="35950897#0" to="1280219259#1" type="delivery"/>
    <trip id="dv_29" depart="348.00" from="-1279915898#8" to="1280219260#0" type="delivery"/>
    <trip id="dv_30" depart="360.00" from="1282340737" to="1282340735" type="delivery"/>
    <trip id="dv_31" depart="372.00" from="118567892" to="295449627#5" type="delivery"/>
    <trip id="dv_32" depart="384.00" from="694775628#2" to="695446625#1" type="delivery"/>
    <trip id="dv_33" depart="396.00" from="118570168#8" to="1279915900#2" type="delivery"/>
    <trip id="dv_34" depart="408.00" from="695510007#0" to="1034028677#0" type="delivery"/>
    <trip id="dv_35" depart="420.00" from="694583900#0" to="118555049#10" type="delivery"/>
    <trip id="dv_36" depart="432.00" from="1282340737" to="695496039#3" type="delivery"/>
    <trip id="dv_37" depart="444.00" from="-302751295#33" to="964171425#4" type="delivery"/>
    <trip id="dv_38" depart="456.00" from="910359052#7" to="35950897#15" type="delivery"/>
    <trip id="dv_39" depart="468.00" from="118570175" to="695502614" type="delivery"/>
    <trip id="dv_40" depart="480.00" from="408161670#18" to="-642360965#2" type="delivery"/>
    <trip id="dv_41" depart="492.00" from="1282340718" to="118575972#3" type="delivery"/>
    <trip id="dv_42" depart="504.00" from="-663749308#1" to="1255578181" type="delivery"/>
    <trip id="dv_43" depart="516.00" from="695504114#4" to="1279915919" type="delivery"/>
    <trip id="dv_44" depart="528.00" from="694600787" to="698936203#3" type="delivery"/>
    <trip id="dv_45" depart="540.00" from="35950868#8" to="697200467#4" type="delivery"/>
    <trip id="dv_46" depart="552.00" from="-35950868#9" to="295408452#5" type="delivery"/>
    <trip id="dv_47" depart="564.00" from="694772625#0" to="118688839#4" type="delivery"/>
    <trip id="dv_48" depart="576.00" from="693416739#3" to="-1446429434#0" type="delivery"/>
    <trip id="dv_49" depart="588.00" from="698936203#7" to="295449625#1" type="delivery"/>
</routes>
