<?xml version="1.0" encoding="UTF-8"?>

<!-- generated on 2026-03-19 15:48:04.000652 by Eclipse SUMO randomTrips.py v1_26_0+0000-fa7df22d7f1
<configuration>
    <net-file value="D:\WeSaveTime-ASEAN\sumo\danang\danang.net.xml"/>
    <additional-files value="D:\WeSaveTime-ASEAN\sumo\danang\danang.vtypes.xml"/>
    <weights-prefix value="D:\WeSaveTime-ASEAN\sumo\danang\danang.weights"/>
    <output-trip-file value="D:\WeSaveTime-ASEAN\sumo\danang\danang.dv_.trips.xml"/>
    <prefix value="dv_"/>
    <trip-attributes value="type=&quot;delivery&quot;"/>
    <fringe-factor value="5"/>
    <random value="True"/>
    <remove-loops value="True"/>
    <end value="900.0"/>
    <period value="6.0"/>
</configuration>
-->

<routes xmlns:xsi="http://www.w3.org/2001/XMLSchema-instance" xsi:noNamespaceSchemaLocation="http://sumo.dlr.de/xsd/routes_file.xsd">
    <trip id="dv_0" depart="0.00" from="35950897#10" to="295408461#5" type="delivery"/>
    <trip id="dv_1" depart="6.00" from="693885802#2" to="-828678810#0" type="delivery"/>
    <trip id="dv_2" depart="12.00" from="694830396" to="-372464935#3" type="delivery"/>
    <trip id="dv_3" depart="18.00" from="910359052#5" to="910359052#7" type="delivery"/>
    <trip id="dv_4" depart="24.00" from="689583171#7" to="-372220804#29" type="delivery"/>
    <trip id="dv_5" depart="30.00" from="828724699#0" to="295408452#11" type="delivery"/>
    <trip id="dv_6" depart="36.00" from="295408460#3" to="39368999#10" type="delivery"/>
    <trip id="dv_7" depart="42.00" from="1034028675#6" to="1210918873#1" type="delivery"/>
    <trip id="dv_8" depart="48.00" from="828724715" to="295408452#16-AddedOffRampEdge" type="delivery"/>
    <trip id="dv_9" depart="54.00" from="35950897#6" to="828678912#3" type="delivery"/>
    <trip id="dv_10" depart="60.00" from="35950897#10" to="689583178#3" type="delivery"/>
    <trip id="dv_11" depart="66.00" from="118673921#0" to="828724750" type="delivery"/>
    <trip id="dv_12" depart="72.00" from="295408462#10" to="695490086#1" type="delivery"/>
    <trip id="dv_13" depart="78.00" from="344658497#2" to="39368999#3" type="delivery"/>
    <trip id="dv_14" depart="84.00" from="295449627#0" to="39368999#10" type="delivery"/>
    <trip id="dv_15" depart="90.00" from="-118575976#0" to="1282340716" type="delivery"/>
    <trip id="dv_16" depart="96.00" from="673151144#1" to="295449625#0" type="delivery"/>
    <trip id="dv_17" depart="102.00" from="302739240#0" to="1280219259#1" type="delivery"/>
    <trip id="dv_18" depart="108.00" from="-118673921#2" to="1280089201#1" type="delivery"/>
    <trip id="dv_19" depart="114.00" from="1361140406" to="964171425#5" type="delivery"/>
    <trip id="dv_20" depart="120.00" from="-35950864#20" to="295449627#5" type="delivery"/>
    <trip id="dv_21" depart="126.00" from="693111346#0" to="910359052#8" type="delivery"/>
    <trip id="dv_22" depart="132.00" from="695040105#5" to="295408452#16-AddedOffRampEdge" type="delivery"/>
    <trip id="dv_23" depart="138.00" from="1034028678" to="295408452#7" type="delivery"/>
    <trip id="dv_24" depart="144.00" from="-372220804#30" to="408161670#27" type="delivery"/>
    <trip id="dv_25" depart="150.00" from="118673929#1" to="697200467#4" type="delivery"/>
    <trip id="dv_26" depart="156.00" from="693885802#0" to="295408452#16-AddedOffRampEdge" type="delivery"/>
    <trip id="dv_27" depart="162.00" from="1280219266" to="302751282-AddedOnRampEdge" type="delivery"/>
    <trip id="dv_28" depart="168.00" from="-118566872#1" to="695040105#0" type="delivery"/>
    <trip id="dv_29" depart="174.00" from="372464935#4" to="695030266" type="delivery"/>
    <trip id="dv_30" depart="180.00" from="694598419#1" to="-828678814#3" type="delivery"/>
    <trip id="dv_31" depart="186.00" from="295408463#0" to="695504114#4" type="delivery"/>
    <trip id="dv_32" depart="192.00" from="1282340736" to="295408452#7" type="delivery"/>
    <trip id="dv_33" depart="198.00" from="302751284#3" to="1280219260#1" type="delivery"/>
    <trip id="dv_34" depart="204.00" from="828678821#0" to="-828678797" type="delivery"/>
    <trip id="dv_35" depart="210.00" from="910359052#0" to="828678912#0" type="delivery"/>
    <trip id="dv_36" depart="216.00" from="1282340736" to="-673151200#2" type="delivery"/>
    <trip id="dv_37" depart="222.00" from="964171425#6" to="779462187#1" type="delivery"/>
    <trip id="dv_38" depart="228.00" from="696169688" to="408161670#20" type="delivery"/>
    <trip id="dv_39" depart="234.00" from="-118673929#4" to="1280219266" type="delivery"/>
    <trip id="dv_40" depart="240.00" from="295408463#0" to="295408452#16-AddedOffRampEdge" type="delivery"/>
    <trip id="dv_41" depart="246.00" from="295408463#1" to="695646333" type="delivery"/>
    <trip id="dv_42" depart="252.00" from="-641397123#1" to="-828678798#0" type="delivery"/>
    <trip id="dv_43" depart="258.00" from="694598419#1-AddedOnRampEdge" to="695510007#1" type="delivery"/>
    <trip id="dv_44" depart="264.00" from="1165643361" to="689583171#7" type="delivery"/>
    <trip id="dv_45" depart="270.00" from="295408452#0" to="39368999#10" type="delivery"/>
    <trip id="dv_46" depart="276.00" from="694830397" to="-118672619#3" type="delivery"/>
    <trip id="dv_47" depart="282.00" from="295408452#7" to="199383481-AddedOnRampEdge" type="delivery"/>
    <trip id="dv_48" depart="288.00" from="695490086#1" to="295128790#0" type="delivery"/>
    <trip id="dv_49" depart="294.00" from="35950897#10" to="1279915897" type="delivery"/>
    <trip id="dv_50" depart="300.00" from="698046188#1" to="118672299#0" type="delivery"/>
    <trip id="dv_51" depart="306.00" from="302751286#2" to="1279915900#0" type="delivery"/>
    <trip id="dv_52" depart="312.00" from="-321069057" to="779462187#1" type="delivery"/>
    <trip id="dv_53" depart="318.00" from="295408459#1" to="295449627#4" type="delivery"/>
    <trip id="dv_54" depart="324.00" from="295408452#5" to="-1282340713#0" type="delivery"/>
    <trip id="dv_55" depart="330.00" from="696169688" to="-35950864#2" type="delivery"/>
    <trip id="dv_56" depart="336.00" from="295408452#5" to="694774375#0" type="delivery"/>
    <trip id="dv_57" depart="342.00" from="-302751295#21" to="302751284#3" type="delivery"/>
    <trip id="dv_58" depart="348.00" from="673151198#3" to="295449627#4" type="delivery"/>
    <trip id="dv_59" depart="354.00" from="372220804#3" to="-1124338484" type="delivery"/>
    <trip id="dv_60" depart="360.00" from="295408461#1" to="695025562#0" type="delivery"/>
    <trip id="dv_61" depart="366.00" from="695502611#0" to="-1279915898#9" type="delivery"/>
    <trip id="dv_62" depart="372.00" from="1279915898#9" to="1280219266" type="delivery"/>
    <trip id="dv_63" depart="378.00" from="408161670#20" to="408161670#27" type="delivery"/>
    <trip id="dv_64" depart="384.00" from="695040552#1" to="1034028675#6" type="delivery"/>
    <trip id="dv_65" depart="390.00" from="-35950868#26" to="295408465#1" type="delivery"/>
    <trip id="dv_66" depart="396.00" from="693885804#0" to="-321069050#0" type="delivery"/>
    <trip id="dv_67" depart="402.00" from="1391330071" to="696168834#1" type="delivery"/>
    <trip id="dv_68" depart="408.00" from="118672633#2" to="910359052#7" type="delivery"/>
    <trip id="dv_69" depart="414.00" from="694775628#0" to="694598419#0" type="delivery"/>
    <trip id="dv_70" depart="420.00" from="695502611#0" to="689583171#7" type="delivery"/>
    <trip id="dv_71" depart="426.00" from="300949142#0" to="-643237807#1" type="delivery"/>
    <trip id="dv_72" depart="432.00" from="-641092773" to="1034028675#0" type="delivery"/>
    <trip id="dv_73" depart="438.00" from="695502611#0" to="695510007#0" type="delivery"/>
    <trip id="dv_74" depart="444.00" from="39368999#17" to="828724821#0" type="delivery"/>
    <trip id="dv_75" depart="450.00" from="35950897#13" to="408161670#13" type="delivery"/>
    <trip id="dv_76" depart="456.00" from="-372466120#0" to="1446429434#1" type="delivery"/>
    <trip id="dv_77" depart="462.00" from="1280614485" to="35950897#15" type="delivery"/>
    <trip id="dv_78" depart="468.00" from="-118673921#3" to="302751282-AddedOnRampEdge" type="delivery"/>
    <trip id="dv_79" depart="474.00" from="295449627#4" to="295449627#0" type="delivery"/>
    <trip id="dv_80" depart="480.00" from="695504114#0" to="-828678860#0" type="delivery"/>
    <trip id="dv_81" depart="486.00" from="673151142#3" to="698936203#4" type="delivery"/>
    <trip id="dv_82" depart="492.00" from="828678811#0" to="910359052#0" type="delivery"/>
    <trip id="dv_83" depart="498.00" from="295128790#0" to="693885803#27" type="delivery"/>
    <trip id="dv_84" depart="504.00" from="693885804#0" to="695502611#1" type="delivery"/>
    <trip id="dv_85" depart="510.00" from="295408459#4" to="779462187#1" type="delivery"/>
    <trip id="dv_86" depart="516.00" from="964171425#5" to="408161670#0" type="delivery"/>
    <trip id="dv_87" depart="522.00" from="302751284#3" to="695504114#4" type="delivery"/>
    <trip id="dv_88" depart="528.00" from="295449625#1" to="160628085#2" type="delivery"/>
    <trip id="dv_89" depart="534.00" from="-39368999#1" to="295408462#0" type="delivery"/>
    <trip id="dv_90" depart="540.00" from="964171425#0" to="300949144#1" type="delivery"/>
    <trip id="dv_91" depart="546.00" from="1280089201#1" to="695025560#0" type="delivery"/>
    <trip id="dv_92" depart="552.00" from="-118555049#4" to="295408462#8" type="delivery"/>
    <trip id="dv_93" depart="558.00" from="695502611#0" to="118688839#0" type="delivery"/>
    <trip id="dv_94" depart="564.00" from="295408452#8" to="295408462#12" type="delivery"/>
    <trip id="dv_95" depart="570.00" from="694598419#1-AddedOnRampEdge" to="-828678811#1" type="delivery"/>
    <trip id="dv_96" depart="576.00" from="910359052#8" to="295449625#1" type="delivery"/>
    <trip id="dv_97" depart="582.00" from="695040105#0" to="1280614505#1" type="delivery"/>
    <trip id="dv_98" depart="588.00" from="118570159#8" to="295408477" type="delivery"/>
    <trip id="dv_99" depart="594.00" from="160628085#1" to="118673929#5" type="delivery"/>
    <trip id="dv_100" depart="600.00" from="35950897#15" to="372466114#3" type="delivery"/>
    <trip id="dv_101" depart="606.00" from="118570181#8" to="910359052#5" type="delivery"/>
    <trip id="dv_102" depart="612.00" from="-118672299#2" to="295408459#5" type="delivery"/>
    <trip id="dv_103" depart="618.00" from="-828678810#0" to="39368999#2" type="delivery"/>
    <trip id="dv_104" depart="624.00" from="-321069050#2" to="295408462#1" type="delivery"/>
    <trip id="dv_105" depart="630.00" from="828678838" to="199383481-AddedOnRampEdge" type="delivery"/>
    <trip id="dv_106" depart="636.00" from="695295268" to="295408452#11" type="delivery"/>
    <trip id="dv_107" depart="642.00" from="-118575969#0" to="295408465#1" type="delivery"/>
    <trip id="dv_108" depart="648.00" from="-1160316964" to="-828724696" type="delivery"/>
    <trip id="dv_109" depart="654.00" from="372467087#0" to="-118672464#3" type="delivery"/>
    <trip id="dv_110" depart="660.00" from="408161670#25" to="695025562#0" type="delivery"/>
    <trip id="dv_111" depart="666.00" from="964171425#6" to="-828678777#0" type="delivery"/>
    <trip id="dv_112" depart="672.00" from="-676458408" to="696168834#0" type="delivery"/>
    <trip id="dv_113" depart="678.00" from="295408463#1" to="695446625#1" type="delivery"/>
    <trip id="dv_114" depart="684.00" from="964171425#0" to="-1346339141#0" type="delivery"/>
    <trip id="dv_115" depart="690.00" from="295408459#1" to="676453139#0" type="delivery"/>
    <trip id="dv_116" depart="696.00" from="300947940" to="695295265#0" type="delivery"/>
    <trip id="dv_117" depart="702.00" from="35950897#10" to="-118570181#2" type="delivery"/>
    <trip id="dv_118" depart="708.00" from="295408452#16-AddedOffRampEdge" to="695502611#0" type="delivery"/>
    <trip id="dv_119" depart="714.00" from="295449625#1" to="697200467#1" type="delivery"/>
    <trip id="dv_120" depart="720.00" from="695490086#1" to="697200467#8" type="delivery"/>
    <trip id="dv_121" depart="726.00" from="694830396" to="295408461#7" type="delivery"/>
    <trip id="dv_122" depart="732.00" from="1034028676#0" to="295449627#5" type="delivery"/>
    <trip id="dv_123" depart="738.00" from="695502611#1" to="408161672#1" type="delivery"/>
    <trip id="dv_124" depart="744.00" from="689583171#12" to="39368999#3" type="delivery"/>
    <trip id="dv_125" depart="750.00" from="35950864#30" to="35950925#3" type="delivery"/>
    <trip id="dv_126" depart="756.00" from="694601892" to="641397122#0" type="delivery"/>
    <trip id="dv_127" depart="762.00" from="35950883#0" to="295408465#2-AddedOnRampEdge" type="delivery"/>
    <trip id="dv_128" depart="768.00" from="694600787" to="295408468#4" type="delivery"/>
    <trip id="dv_129" depart="774.00" from="1279915900#3" to="-372467085#1" type="delivery"/>
    <trip id="dv_130" depart="780.00" from="118570145#0" to="35950864#22" type="delivery"/>
    <trip id="dv_131" depart="786.00" from="372220804#22" to="1280219260#0" type="delivery"/>
    <trip id="dv_132" depart="792.00" from="295408459#1" to="1280614485" type="delivery"/>
    <trip id="dv_133" depart="798.00" from="-828678769#1" to="295408465#2-AddedOnRampEdge" type="delivery"/>
    <trip id="dv_134" depart="804.00" from="372467087#0" to="35950897#6" type="delivery"/>
    <trip id="dv_135" depart="810.00" from="-828724724#0" to="693885802#0" type="delivery"/>
    <trip id="dv_136" depart="816.00" from="695510007#1" to="295408452#6" type="delivery"/>
    <trip id="dv_137" depart="822.00" from="39368999#1" to="910359052#7" type="delivery"/>
    <trip id="dv_138" depart="828.00" from="694601892" to="-765351891#0" type="delivery"/>
    <trip id="dv_139" depart="834.00" from="118570168#5" to="1280089201#1" type="delivery"/>
    <trip id="dv_140" depart="840.00" from="-118570168#6" to="118570181#4" type="delivery"/>
    <trip id="dv_141" depart="846.00" from="-676438753#0" to="39368999#11" type="delivery"/>
    <trip id="dv_142" depart="852.00" from="964171425#0" to="302751284#3" type="delivery"/>
    <trip id="dv_143" depart="858.00" from="1280219259#0" to="295449625#0" type="delivery"/>
    <trip id="dv_144" depart="864.00" from="408161670#0" to="695510007#0" type="delivery"/>
    <trip id="dv_145" depart="870.00" from="694583900#0-AddedOffRampEdge" to="160628085#0" type="delivery"/>
    <trip id="dv_146" depart="876.00" from="302751295#11" to="697200463#0" type="delivery"/>
    <trip id="dv_147" depart="882.00" from="295408452#0" to="-321069038#1" type="delivery"/>
    <trip id="dv_148" depart="888.00" from="-295449629#2" to="1391330069#0" type="delivery"/>
    <trip id="dv_149" depart="894.00" from="1391330070#12" to="1280219259#0" type="delivery"/>
</routes>
