<?xml version="1.0" encoding="UTF-8"?>

<!-- generated on 2026-03-21 14:11:48.969631 by Eclipse SUMO randomTrips.py v1_26_0+0000-fa7df22d7f1
<configuration>
    <net-file value="D:\WeSaveTime-ASEAN\sumo\danang\danang.net.xml"/>
    <additional-files value="D:\WeSaveTime-ASEAN\sumo\danang\danang.vtypes.xml"/>
    <weights-prefix value="D:\WeSaveTime-ASEAN\sumo\danang\danang.weights"/>
    <output-trip-file value="D:\WeSaveTime-ASEAN\sumo\danang\danang.sv_.trips.xml"/>
    <prefix value="sv_"/>
    <trip-attributes value="type=&quot;car_suv&quot;"/>
    <fringe-factor value="5"/>
    <random value="True"/>
    <remove-loops value="True"/>
    <end value="600.0"/>
    <period value="7.5"/>
</configuration>
-->

<routes xmlns:xsi="http://www.w3.org/2001/XMLSchema-instance" xsi:noNamespaceSchemaLocation="http://sumo.dlr.de/xsd/routes_file.xsd">
    <trip id="sv_0" depart="0.00" from="1034028676#2" to="1034028676#2" type="car_suv"/>
    <trip id="sv_1" depart="7.50" from="-828678869#1" to="-562701504" type="car_suv"/>
    <trip id="sv_2" depart="15.00" from="828678860#2" to="828678866" type="car_suv"/>
    <trip id="sv_3" depart="22.50" from="302739240#3" to="676451738#0" type="car_suv"/>
    <trip id="sv_4" depart="30.00" from="694598419#1-AddedOnRampEdge" to="1282340737" type="car_suv"/>
    <trip id="sv_5" depart="37.50" from="694202154#0" to="694772625#0" type="car_suv"/>
    <trip id="sv_6" depart="45.00" from="-895475668" to="697200467#9" type="car_suv"/>
    <trip id="sv_7" depart="52.50" from="828724711#0" to="641112951" type="car_suv"/>
    <trip id="sv_8" depart="60.00" from="695496039#3" to="910359052#0" type="car_suv"/>
    <trip id="sv_9" depart="67.50" from="695295265#0" to="295408459#7" type="car_suv"/>
    <trip id="sv_10" depart="75.00" from="693111346#0" to="676451738#1" type="car_suv"/>
    <trip id="sv_11" depart="82.50" from="828678810#3" to="199383481-AddedOnRampEdge" type="car_suv"/>
    <trip id="sv_12" depart="90.00" from="694830397" to="895450605" type="car_suv"/>
    <trip id="sv_13" depart="97.50" from="-39368999#0" to="695446623#1" type="car_suv"/>
    <trip id="sv_14" depart="105.00" from="1280614485" to="295408452#6" type="car_suv"/>
    <trip id="sv_15" depart="112.50" from="693416427" to="695040105#5" type="car_suv"/>
    <trip id="sv_16" depart="120.00" from="118672633#0" to="295408462#8" type="car_suv"/>
    <trip id="sv_17" depart="127.50" from="35950897#10" to="-118672608#3" type="car_suv"/>
    <trip id="sv_18" depart="135.00" from="-118570164#2" to="295408460#3" type="car_suv"/>
    <trip id="sv_19" depart="142.50" from="695510007#1" to="1034028676#2" type="car_suv"/>
    <trip id="sv_20" depart="150.00" from="-641397119#0" to="295449625#0" type="car_suv"/>
    <trip id="sv_21" depart="157.50" from="1280219257#0" to="408161670#22" type="car_suv"/>
    <trip id="sv_22" depart="165.00" from="828678832" to="828724797#0" type="car_suv"/>
    <trip id="sv_23" depart="172.50" from="695510007#1" to="697200467#9" type="car_suv"/>
    <trip id="sv_24" depart="180.00" from="693885804#0" to="697200467#8" type="car_suv"/>
    <trip id="sv_25" depart="187.50" from="695502613" to="693885803#26" type="car_suv"/>
    <trip id="sv_26" depart="195.00" from="1280614504#0" to="676509072#2" type="car_suv"/>
    <trip id="sv_27" depart="202.50" from="295408462#8" to="695502611#0" type="car_suv"/>
    <trip id="sv_28" depart="210.00" from="35950925#1" to="302739239#1" type="car_suv"/>
    <trip id="sv_29" depart="217.50" from="828678872" to="964171425#5" type="car_suv"/>
    <trip id="sv_30" depart="225.00" from="-35950868#20" to="695490087#1" type="car_suv"/>
    <trip id="sv_31" depart="232.50" from="695295268" to="302737424#0" type="car_suv"/>
    <trip id="sv_32" depart="240.00" from="964171425#4" to="295408452#11" type="car_suv"/>
    <trip id="sv_33" depart="247.50" from="295408452#9" to="694600787" type="car_suv"/>
    <trip id="sv_34" depart="255.00" from="695025562#0" to="708004447" type="car_suv"/>
    <trip id="sv_35" depart="262.50" from="694583900#0-AddedOffRampEdge" to="408161670#22" type="car_suv"/>
    <trip id="sv_36" depart="270.00" from="295408452#6" to="295408462#1" type="car_suv"/>
    <trip id="sv_37" depart="277.50" from="-39368999#0" to="35950897#10" type="car_suv"/>
    <trip id="sv_38" depart="285.00" from="695446625#3" to="295449627#0" type="car_suv"/>
    <trip id="sv_39" depart="292.50" from="35950868#6" to="828724768#1" type="car_suv"/>
    <trip id="sv_40" depart="300.00" from="118566872#1" to="1280219259#0" type="car_suv"/>
    <trip id="sv_41" depart="307.50" from="694583900#0-AddedOffRampEdge" to="295408460#3" type="car_suv"/>
    <trip id="sv_42" depart="315.00" from="35950868#15" to="-828724737" type="car_suv"/>
    <trip id="sv_43" depart="322.50" from="696168834#1" to="372220804#4" type="car_suv"/>
    <trip id="sv_44" depart="330.00" from="295449627#4" to="302737424#1" type="car_suv"/>
    <trip id="sv_45" depart="337.50" from="1210918872#1" to="295408461#0" type="car_suv"/>
    <trip id="sv_46" depart="345.00" from="35950925#6" to="694715299#1" type="car_suv"/>
    <trip id="sv_47" depart="352.50" from="689583171#11" to="295408461#4" type="car_suv"/>
    <trip id="sv_48" depart="360.00" from="695295265#0" to="695496039#3" type="car_suv"/>
    <trip id="sv_49" depart="367.50" from="295408452#10" to="693885804#0" type="car_suv"/>
    <trip id="sv_50" depart="375.00" from="302751284#0" to="673151142#4" type="car_suv"/>
    <trip id="sv_51" depart="382.50" from="695040105#0" to="160628085#2" type="car_suv"/>
    <trip id="sv_52" depart="390.00" from="673151200#3" to="696169688" type="car_suv"/>
    <trip id="sv_53" depart="397.50" from="1280089201#2" to="39368999#14" type="car_suv"/>
    <trip id="sv_54" depart="405.00" from="694598419#0" to="828724700#0" type="car_suv"/>
    <trip id="sv_55" depart="412.50" from="693416739#0" to="673151142#4" type="car_suv"/>
    <trip id="sv_56" depart="420.00" from="1280614485" to="641397122#4" type="car_suv"/>
    <trip id="sv_57" depart="427.50" from="1282340719" to="695502614" type="car_suv"/>
    <trip id="sv_58" depart="435.00" from="695504114#4" to="408161672#1" type="car_suv"/>
    <trip id="sv_59" depart="442.50" from="1034027336#2" to="-118672612#4" type="car_suv"/>
    <trip id="sv_60" depart="450.00" from="35950925#1" to="1280089201#0" type="car_suv"/>
    <trip id="sv_61" depart="457.50" from="-828678864" to="295408463#1" type="car_suv"/>
    <trip id="sv_62" depart="465.00" from="698936203#7" to="118673921#3" type="car_suv"/>
    <trip id="sv_63" depart="472.50" from="408161670#27" to="295408468#4" type="car_suv"/>
    <trip id="sv_64" depart="480.00" from="695502613" to="-676714129" type="car_suv"/>
    <trip id="sv_65" depart="487.50" from="697200463#0" to="698046188#1" type="car_suv"/>
    <trip id="sv_66" depart="495.00" from="118570147#1" to="1034028675#6" type="car_suv"/>
    <trip id="sv_67" depart="502.50" from="295408452#6" to="1418093030" type="car_suv"/>
    <trip id="sv_68" depart="510.00" from="694598419#0" to="302751282" type="car_suv"/>
    <trip id="sv_69" depart="517.50" from="295449628" to="695040552#0" type="car_suv"/>
    <trip id="sv_70" depart="525.00" from="-39368999#0" to="408161670#20" type="car_suv"/>
    <trip id="sv_71" depart="532.50" from="1034028675#0" to="-828678868" type="car_suv"/>
    <trip id="sv_72" depart="540.00" from="-118672299#0" to="1446472838" type="car_suv"/>
    <trip id="sv_73" depart="547.50" from="295408464#0-AddedOffRampEdge" to="295408468#4" type="car_suv"/>
    <trip id="sv_74" depart="555.00" from="35950897#6" to="-35950883#3" type="car_suv"/>
    <trip id="sv_75" depart="562.50" from="295408459#1" to="1279915921" type="car_suv"/>
    <trip id="sv_76" depart="570.00" from="295408464#0" to="295408465#2-AddedOnRampEdge" type="car_suv"/>
    <trip id="sv_77" depart="577.50" from="295449627#5" to="295408462#0" type="car_suv"/>
    <trip id="sv_78" depart="585.00" from="1279915921" to="-641436976" type="car_suv"/>
    <trip id="sv_79" depart="592.50" from="1210918872#1" to="694774375#0" type="car_suv"/>
</routes>
