<?xml version="1.0" encoding="UTF-8"?>

<!-- generated on 2026-03-19 15:47:58.293657 by Eclipse SUMO randomTrips.py v1_26_0+0000-fa7df22d7f1
<configuration>
    <net-file value="D:\WeSaveTime-ASEAN\sumo\danang\danang.net.xml"/>
    <additional-files value="D:\WeSaveTime-ASEAN\sumo\danang\danang.vtypes.xml"/>
    <weights-prefix value="D:\WeSaveTime-ASEAN\sumo\danang\danang.weights"/>
    <output-trip-file value="D:\WeSaveTime-ASEAN\sumo\danang\danang.bs_.trips.xml"/>
    <prefix value="bs_"/>
    <trip-attributes value="type=&quot;bus&quot;"/>
    <fringe-factor value="10"/>
    <random value="True"/>
    <remove-loops value="True"/>
    <end value="900.0"/>
    <period value="4.5"/>
</configuration>
-->

<routes xmlns:xsi="http://www.w3.org/2001/XMLSchema-instance" xsi:noNamespaceSchemaLocation="http://sumo.dlr.de/xsd/routes_file.xsd">
    <trip id="bs_0" depart="0.00" from="694598419#1-AddedOnRampEdge" to="1280089201#1" type="bus"/>
    <trip id="bs_1" depart="4.50" from="694775628#2" to="1280219259#1" type="bus"/>
    <trip id="bs_2" depart="9.00" from="695040552#1" to="1280089201#1" type="bus"/>
    <trip id="bs_3" depart="13.50" from="-35950959#11" to="910359052#3" type="bus"/>
    <trip id="bs_4" depart="18.00" from="-118573597" to="-39368999#8" type="bus"/>
    <trip id="bs_5" depart="22.50" from="1282340739" to="118567494" type="bus"/>
    <trip id="bs_6" depart="27.00" from="118672606#1" to="-641397118" type="bus"/>
    <trip id="bs_7" depart="31.50" from="1210918872#1" to="-302751295#20" type="bus"/>
    <trip id="bs_8" depart="36.00" from="676465938#0" to="1280614505#1" type="bus"/>
    <trip id="bs_9" depart="40.50" from="295408452#16-AddedOffRampEdge" to="695295265#0" type="bus"/>
    <trip id="bs_10" depart="45.00" from="694598419#1-AddedOnRampEdge" to="118575973#1" type="bus"/>
    <trip id="bs_11" depart="49.50" from="1280614484" to="1279915921" type="bus"/>
    <trip id="bs_12" depart="54.00" from="695446625#1" to="372220804#5" type="bus"/>
    <trip id="bs_13" depart="58.50" from="694601892" to="676458410#0" type="bus"/>
    <trip id="bs_14" depart="63.00" from="-118570151#1" to="641397122#4" type="bus"/>
    <trip id="bs_15" depart="67.50" from="295449629#2" to="-642086910" type="bus"/>
    <trip id="bs_16" depart="72.00" from="1279915897" to="295408468#4" type="bus"/>
    <trip id="bs_17" depart="76.50" from="295408464#0-AddedOffRampEdge" to="-39368999#3" type="bus"/>
    <trip id="bs_18" depart="81.00" from="910359052#3" to="694598419#1-AddedOnRampEdge" type="bus"/>
    <trip id="bs_19" depart="85.50" from="964171425#5" to="1282340719" type="bus"/>
    <trip id="bs_20" depart="90.00" from="1280089201#1" to="695496039#3" type="bus"/>
    <trip id="bs_21" depart="94.50" from="295408462#10" to="695502613" type="bus"/>
    <trip id="bs_22" depart="99.00" from="295408461#4" to="408161670#27" type="bus"/>
    <trip id="bs_23" depart="103.50" from="694598419#1-AddedOnRampEdge" to="1282340736" type="bus"/>
    <trip id="bs_24" depart="108.00" from="-828724728" to="-828724715" type="bus"/>
    <trip id="bs_25" depart="112.50" from="828724684#0" to="698936203#4" type="bus"/>
    <trip id="bs_26" depart="117.00" from="302751284#0" to="-828724700#1" type="bus"/>
    <trip id="bs_27" depart="121.50" from="295408459#0" to="695510007#0" type="bus"/>
    <trip id="bs_28" depart="126.00" from="696168834#1" to="695025560#0" type="bus"/>
    <trip id="bs_29" depart="130.50" from="964171425#4" to="372589135#0" type="bus"/>
    <trip id="bs_30" depart="135.00" from="118673944#4" to="1034028675#2" type="bus"/>
    <trip id="bs_31" depart="139.50" from="1280089201#2" to="408161670#18" type="bus"/>
    <trip id="bs_32" depart="144.00" from="408161670#0" to="295128790#0" type="bus"/>
    <trip id="bs_33" depart="148.50" from="561913438#1" to="302751284#0" type="bus"/>
    <trip id="bs_34" depart="153.00" from="-895482900" to="-302751295#8" type="bus"/>
    <trip id="bs_35" depart="157.50" from="39354228#4" to="295408462#8" type="bus"/>
    <trip id="bs_36" depart="162.00" from="1282340735" to="695090346#0" type="bus"/>
    <trip id="bs_37" depart="166.50" from="694583900#0-AddedOffRampEdge" to="295408452#9" type="bus"/>
    <trip id="bs_38" depart="171.00" from="302751284#0" to="295449627#4" type="bus"/>
    <trip id="bs_39" depart="175.50" from="1280219265" to="302739242#1" type="bus"/>
    <trip id="bs_40" depart="180.00" from="1282340737" to="828678831" type="bus"/>
    <trip id="bs_41" depart="184.50" from="1034028675#6" to="295408452#6" type="bus"/>
    <trip id="bs_42" depart="189.00" from="1034028678" to="695496039#2" type="bus"/>
    <trip id="bs_43" depart="193.50" from="697200467#10" to="39368999#3" type="bus"/>
    <trip id="bs_44" depart="198.00" from="408161670#13" to="302751284#3" type="bus"/>
    <trip id="bs_45" depart="202.50" from="295408452#0" to="118567494" type="bus"/>
    <trip id="bs_46" depart="207.00" from="295128790#0" to="895447147" type="bus"/>
    <trip id="bs_47" depart="211.50" from="828678814#5" to="295128790#4" type="bus"/>
    <trip id="bs_48" depart="216.00" from="35950897#6" to="828678741#0" type="bus"/>
    <trip id="bs_49" depart="220.50" from="1280614504#0" to="694774375#0" type="bus"/>
    <trip id="bs_50" depart="225.00" from="-828724768#3" to="694601892" type="bus"/>
    <trip id="bs_51" depart="229.50" from="295128790#0" to="696169688" type="bus"/>
    <trip id="bs_52" depart="234.00" from="1280219260#1" to="828678773#0" type="bus"/>
    <trip id="bs_53" depart="238.50" from="694715299#1" to="39368999#6" type="bus"/>
    <trip id="bs_54" depart="243.00" from="295408452#7" to="-118570159#6" type="bus"/>
    <trip id="bs_55" depart="247.50" from="1034028675#0" to="694775628#2" type="bus"/>
    <trip id="bs_56" depart="252.00" from="695502613" to="828724742" type="bus"/>
    <trip id="bs_57" depart="256.50" from="118567494" to="695510007#1" type="bus"/>
    <trip id="bs_58" depart="261.00" from="693885802#0" to="641120965#1" type="bus"/>
    <trip id="bs_59" depart="265.50" from="39368999#6" to="-372466117#3" type="bus"/>
    <trip id="bs_60" depart="270.00" from="-828724795#1" to="118575969#0" type="bus"/>
    <trip id="bs_61" depart="274.50" from="35950868#6" to="295408452#8" type="bus"/>
    <trip id="bs_62" depart="279.00" from="35950925#6" to="563780767#1" type="bus"/>
    <trip id="bs_63" depart="283.50" from="697200467#8" to="695295268" type="bus"/>
    <trip id="bs_64" depart="288.00" from="295408461#4" to="1034028676#0" type="bus"/>
    <trip id="bs_65" depart="292.50" from="295408452#5" to="-641397123#1" type="bus"/>
    <trip id="bs_66" depart="297.00" from="828724731" to="295408465#2-AddedOnRampEdge" type="bus"/>
    <trip id="bs_67" depart="301.50" from="964171425#0" to="408161670#18" type="bus"/>
    <trip id="bs_68" depart="306.00" from="-828724709" to="697200467#1" type="bus"/>
    <trip id="bs_69" depart="310.50" from="295408460#3" to="695496039#2" type="bus"/>
    <trip id="bs_70" depart="315.00" from="35950959#3" to="695040552#0" type="bus"/>
    <trip id="bs_71" depart="319.50" from="693111346#0" to="-828724709" type="bus"/>
    <trip id="bs_72" depart="324.00" from="695504114#4" to="693416739#0" type="bus"/>
    <trip id="bs_73" depart="328.50" from="695496039#2" to="828678749#1" type="bus"/>
    <trip id="bs_74" depart="333.00" from="694775628#0" to="828395782" type="bus"/>
    <trip id="bs_75" depart="337.50" from="295408452#9" to="295408452#5" type="bus"/>
    <trip id="bs_76" depart="342.00" from="-302751295#2" to="-828678907" type="bus"/>
    <trip id="bs_77" depart="346.50" from="696168834#1" to="1280219259#0" type="bus"/>
    <trip id="bs_78" depart="351.00" from="408161670#25" to="1280089222" type="bus"/>
    <trip id="bs_79" depart="355.50" from="372220804#34" to="695504114#1" type="bus"/>
    <trip id="bs_80" depart="360.00" from="295408462#0" to="39368999#13" type="bus"/>
    <trip id="bs_81" depart="364.50" from="1034028676#1" to="695496042#0" type="bus"/>
    <trip id="bs_82" depart="369.00" from="694601892" to="560329291#1" type="bus"/>
    <trip id="bs_83" depart="373.50" from="694830396" to="689583178#3" type="bus"/>
    <trip id="bs_84" depart="378.00" from="-828678777#0" to="39368999#1" type="bus"/>
    <trip id="bs_85" depart="382.50" from="372220804#30" to="-118573603#0" type="bus"/>
    <trip id="bs_86" depart="387.00" from="910359052#8" to="199383481-AddedOnRampEdge" type="bus"/>
    <trip id="bs_87" depart="391.50" from="118573606#4" to="343237264#1" type="bus"/>
    <trip id="bs_88" depart="396.00" from="-828724704" to="1034028675#0" type="bus"/>
    <trip id="bs_89" depart="400.50" from="295408462#8" to="160628085#0" type="bus"/>
    <trip id="bs_90" depart="405.00" from="964171425#6" to="694598419#1-AddedOnRampEdge" type="bus"/>
    <trip id="bs_91" depart="409.50" from="696169688" to="-828678793#1" type="bus"/>
    <trip id="bs_92" depart="414.00" from="-828724744" to="373009311#0" type="bus"/>
    <trip id="bs_93" depart="418.50" from="-1282340713#0" to="-695040102#1" type="bus"/>
    <trip id="bs_94" depart="423.00" from="693416739#3" to="695030266" type="bus"/>
    <trip id="bs_95" depart="427.50" from="-118570159#11" to="698936203#4" type="bus"/>
    <trip id="bs_96" depart="432.00" from="695504114#1" to="295449627#4" type="bus"/>
    <trip id="bs_97" depart="436.50" from="295408452#10" to="295408463#0" type="bus"/>
    <trip id="bs_98" depart="441.00" from="-302751295#8" to="295408468#4" type="bus"/>
    <trip id="bs_99" depart="445.50" from="910359052#7" to="1282340716" type="bus"/>
    <trip id="bs_100" depart="450.00" from="1280089222" to="408161670#18" type="bus"/>
    <trip id="bs_101" depart="454.50" from="300947936" to="-828724696" type="bus"/>
    <trip id="bs_102" depart="459.00" from="408161670#22" to="35950897#6" type="bus"/>
    <trip id="bs_103" depart="463.50" from="295408452#16-AddedOffRampEdge" to="828678817#0" type="bus"/>
    <trip id="bs_104" depart="468.00" from="695446625#3" to="408161672#1" type="bus"/>
    <trip id="bs_105" depart="472.50" from="828724731" to="695502611#1" type="bus"/>
    <trip id="bs_106" depart="477.00" from="642050078#0" to="828724723" type="bus"/>
    <trip id="bs_107" depart="481.50" from="910359052#9" to="695025562#0" type="bus"/>
    <trip id="bs_108" depart="486.00" from="1282340735" to="695502613" type="bus"/>
    <trip id="bs_109" depart="490.50" from="372220804#3" to="694775628#2" type="bus"/>
    <trip id="bs_110" depart="495.00" from="828678867" to="695446625#3" type="bus"/>
    <trip id="bs_111" depart="499.50" from="695496039#2" to="694775628#0" type="bus"/>
    <trip id="bs_112" depart="504.00" from="295128790#4" to="689583171#15" type="bus"/>
    <trip id="bs_113" depart="508.50" from="697200467#10" to="302751282" type="bus"/>
    <trip id="bs_114" depart="513.00" from="697200467#11" to="372220804#2" type="bus"/>
    <trip id="bs_115" depart="517.50" from="295408468#0" to="-302751295#21" type="bus"/>
    <trip id="bs_116" depart="522.00" from="118570160" to="35950897#15" type="bus"/>
    <trip id="bs_117" depart="526.50" from="295408477" to="295408452#5" type="bus"/>
    <trip id="bs_118" depart="531.00" from="1282340735" to="-643237807#1" type="bus"/>
    <trip id="bs_119" depart="535.50" from="35950897#0" to="-676438755" type="bus"/>
    <trip id="bs_120" depart="540.00" from="694738596" to="160628085#2" type="bus"/>
    <trip id="bs_121" depart="544.50" from="408161670#22" to="295408452#9" type="bus"/>
    <trip id="bs_122" depart="549.00" from="408161670#0" to="1034028676#0" type="bus"/>
    <trip id="bs_123" depart="553.50" from="35950897#0" to="295449625#1" type="bus"/>
    <trip id="bs_124" depart="558.00" from="295408463#1" to="35950925#0" type="bus"/>
    <trip id="bs_125" depart="562.50" from="689583171#0" to="1280219260#1" type="bus"/>
    <trip id="bs_126" depart="567.00" from="689583171#11" to="828678837#0" type="bus"/>
    <trip id="bs_127" depart="571.50" from="408161670#20" to="1034028675#6" type="bus"/>
    <trip id="bs_128" depart="576.00" from="372220804#17" to="35950868#14" type="bus"/>
    <trip id="bs_129" depart="580.50" from="696168834#0" to="695030266" type="bus"/>
    <trip id="bs_130" depart="585.00" from="693416739#0" to="-828678787#3" type="bus"/>
    <trip id="bs_131" depart="589.50" from="1282340714" to="-562701504" type="bus"/>
    <trip id="bs_132" depart="594.00" from="964171425#6" to="-295449629#2" type="bus"/>
    <trip id="bs_133" depart="598.50" from="910359052#0" to="695490087#1" type="bus"/>
    <trip id="bs_134" depart="603.00" from="695490087#1" to="693885804#0" type="bus"/>
    <trip id="bs_135" depart="607.50" from="118570147#0" to="118673913#4" type="bus"/>
    <trip id="bs_136" depart="612.00" from="696169688" to="694774375#0" type="bus"/>
    <trip id="bs_137" depart="616.50" from="1391330070#0" to="-673151144#1" type="bus"/>
    <trip id="bs_138" depart="621.00" from="694830397" to="295394152#0" type="bus"/>
    <trip id="bs_139" depart="625.50" from="697200467#9" to="295408452#7" type="bus"/>
    <trip id="bs_140" depart="630.00" from="-561667996#2" to="694600787" type="bus"/>
    <trip id="bs_141" depart="634.50" from="-118555049#17" to="295408477" type="bus"/>
    <trip id="bs_142" depart="639.00" from="964171425#4" to="-828678810#3" type="bus"/>
    <trip id="bs_143" depart="643.50" from="694583900#0-AddedOffRampEdge" to="408161670#0" type="bus"/>
    <trip id="bs_144" depart="648.00" from="1280219259#0" to="560329311" type="bus"/>
    <trip id="bs_145" depart="652.50" from="694583900#0-AddedOffRampEdge" to="295408462#12" type="bus"/>
    <trip id="bs_146" depart="657.00" from="295408452#16-AddedOffRampEdge" to="199383481" type="bus"/>
    <trip id="bs_147" depart="661.50" from="828678810#4" to="695295267#2" type="bus"/>
    <trip id="bs_148" depart="666.00" from="118567489#0" to="1280219260#0" type="bus"/>
    <trip id="bs_149" depart="670.50" from="694583900#0" to="828724725#0" type="bus"/>
    <trip id="bs_150" depart="675.00" from="895447147" to="641397122#0" type="bus"/>
    <trip id="bs_151" depart="679.50" from="295408464#0" to="160628085#2" type="bus"/>
    <trip id="bs_152" depart="684.00" from="-118673928" to="1279915896#0" type="bus"/>
    <trip id="bs_153" depart="688.50" from="695502614" to="295408452#9" type="bus"/>
    <trip id="bs_154" depart="693.00" from="295408452#10" to="910359052#5" type="bus"/>
    <trip id="bs_155" depart="697.50" from="-828724696" to="695030266" type="bus"/>
    <trip id="bs_156" depart="702.00" from="1282340736" to="35950868#5" type="bus"/>
    <trip id="bs_157" depart="706.50" from="35950868#10" to="641397118" type="bus"/>
    <trip id="bs_158" depart="711.00" from="694583900#0-AddedOffRampEdge" to="695295267#0" type="bus"/>
    <trip id="bs_159" depart="715.50" from="35950897#10" to="295408459#5" type="bus"/>
    <trip id="bs_160" depart="720.00" from="704621733#0" to="1279915919" type="bus"/>
    <trip id="bs_161" depart="724.50" from="39368999#9" to="562709015#0" type="bus"/>
    <trip id="bs_162" depart="729.00" from="35950868#20" to="1034028676#0" type="bus"/>
    <trip id="bs_163" depart="733.50" from="695510007#1" to="-676509076#0" type="bus"/>
    <trip id="bs_164" depart="738.00" from="-696755556#0" to="-39368999#3" type="bus"/>
    <trip id="bs_165" depart="742.50" from="695446625#1" to="295408452#6" type="bus"/>
    <trip id="bs_166" depart="747.00" from="-302751295#7" to="302751282" type="bus"/>
    <trip id="bs_167" depart="751.50" from="-643237805" to="39354228#1" type="bus"/>
    <trip id="bs_168" depart="756.00" from="35950897#6" to="1279915921" type="bus"/>
    <trip id="bs_169" depart="760.50" from="118673937#4" to="295408452#8" type="bus"/>
    <trip id="bs_170" depart="765.00" from="295408463#1" to="295449620" type="bus"/>
    <trip id="bs_171" depart="769.50" from="1280614485" to="695502611#0" type="bus"/>
    <trip id="bs_172" depart="774.00" from="295408461#1" to="-118570159#7" type="bus"/>
    <trip id="bs_173" depart="778.50" from="295408452#10" to="676453141" type="bus"/>
    <trip id="bs_174" depart="783.00" from="695510007#0" to="-560329311" type="bus"/>
    <trip id="bs_175" depart="787.50" from="-39368999#10" to="694598419#1-AddedOnRampEdge" type="bus"/>
    <trip id="bs_176" depart="792.00" from="295449625#1" to="-39368999#9" type="bus"/>
    <trip id="bs_177" depart="796.50" from="295449627#0" to="295408460#2" type="bus"/>
    <trip id="bs_178" depart="801.00" from="408161670#20" to="118672633#0" type="bus"/>
    <trip id="bs_179" depart="805.50" from="295408452#16-AddedOffRampEdge" to="295408462#8" type="bus"/>
    <trip id="bs_180" depart="810.00" from="695496039#2" to="695446623#1" type="bus"/>
    <trip id="bs_181" depart="814.50" from="295408462#8" to="295408452#7" type="bus"/>
    <trip id="bs_182" depart="819.00" from="1034028676#0" to="199383481-AddedOnRampEdge" type="bus"/>
    <trip id="bs_183" depart="823.50" from="694715298" to="698046188#1" type="bus"/>
    <trip id="bs_184" depart="828.00" from="676714129" to="408161670#20" type="bus"/>
    <trip id="bs_185" depart="832.50" from="1210918872#1" to="641092779" type="bus"/>
    <trip id="bs_186" depart="837.00" from="828678860#4" to="408161670#13" type="bus"/>
    <trip id="bs_187" depart="841.50" from="676458407" to="-372220804#16" type="bus"/>
    <trip id="bs_188" depart="846.00" from="1280219258#0" to="-118575973#0" type="bus"/>
    <trip id="bs_189" depart="850.50" from="1282340736" to="693416427" type="bus"/>
    <trip id="bs_190" depart="855.00" from="295449627#5" to="-828678811#0" type="bus"/>
    <trip id="bs_191" depart="859.50" from="-118570147#0" to="694600787" type="bus"/>
    <trip id="bs_192" depart="864.00" from="1280219257#0" to="695030266" type="bus"/>
    <trip id="bs_193" depart="868.50" from="828724721" to="695295267#2" type="bus"/>
    <trip id="bs_194" depart="873.00" from="695295265#0" to="695025562#0" type="bus"/>
    <trip id="bs_195" depart="877.50" from="695496039#3" to="779462187#1" type="bus"/>
    <trip id="bs_196" depart="882.00" from="1280219258#0" to="828678794#1" type="bus"/>
    <trip id="bs_197" depart="886.50" from="694598419#0" to="779462187#0" type="bus"/>
    <trip id="bs_198" depart="891.00" from="694830397" to="344692547#0" type="bus"/>
    <trip id="bs_199" depart="895.50" from="295408452#8" to="695040102#0" type="bus"/>
</routes>
