<?xml version="1.0" encoding="UTF-8"?>

<!-- generated on 2026-03-22 01:29:18.841106 by Eclipse SUMO randomTrips.py v1_26_0+0000-fa7df22d7f1
<configuration>
    <net-file value="D:\WeSaveTime-ASEAN\sumo\danang\danang.net.xml"/>
    <additional-files value="D:\WeSaveTime-ASEAN\sumo\danang\danang.vtypes.xml"/>
    <weights-prefix value="D:\WeSaveTime-ASEAN\sumo\danang\danang.weights"/>
    <output-trip-file value="D:\WeSaveTime-ASEAN\sumo\danang\danang.bs_.trips.xml"/>
    <prefix value="bs_"/>
    <trip-attributes value="type=&quot;bus&quot;"/>
    <fringe-factor value="10"/>
    <random value="True"/>
    <remove-loops value="True"/>
    <end value="600.0"/>
    <period value="9.23"/>
</configuration>
-->

<routes xmlns:xsi="http://www.w3.org/2001/XMLSchema-instance" xsi:noNamespaceSchemaLocation="http://sumo.dlr.de/xsd/routes_file.xsd">
    <trip id="bs_0" depart="0.00" from="693330103#0" to="372464935#4" type="bus"/>
    <trip id="bs_1" depart="9.23" from="1280089222" to="1392384121#0" type="bus"/>
    <trip id="bs_2" depart="18.46" from="695040552#0" to="-1467236399" type="bus"/>
    <trip id="bs_3" depart="27.69" from="695544823" to="695502614" type="bus"/>
    <trip id="bs_4" depart="36.92" from="295408452#6" to="964171425#0" type="bus"/>
    <trip id="bs_5" depart="46.15" from="-831070297#0" to="1282340733#1" type="bus"/>
    <trip id="bs_6" depart="55.38" from="408161670#0" to="695502614" type="bus"/>
    <trip id="bs_7" depart="64.61" from="1034028676#1" to="199383481" type="bus"/>
    <trip id="bs_8" depart="73.84" from="-828724768#3" to="673151142#5" type="bus"/>
    <trip id="bs_9" depart="83.07" from="302739240#0" to="828724768#1" type="bus"/>
    <trip id="bs_10" depart="92.30" from="118673921#1" to="118555049#17" type="bus"/>
    <trip id="bs_11" depart="101.53" from="689583171#7" to="-118575975#5" type="bus"/>
    <trip id="bs_12" depart="110.76" from="-673151196" to="695504114#0" type="bus"/>
    <trip id="bs_13" depart="119.99" from="694583900#0" to="295408461#10" type="bus"/>
    <trip id="bs_14" depart="129.22" from="-1446429434#0" to="1280219250" type="bus"/>
    <trip id="bs_15" depart="138.45" from="118555049#5" to="295408462#8" type="bus"/>
    <trip id="bs_16" depart="147.68" from="828724724#0" to="-561913437#0" type="bus"/>
    <trip id="bs_17" depart="156.91" from="693885804#0" to="693885802#0" type="bus"/>
    <trip id="bs_18" depart="166.14" from="964171425#2" to="35950897#1" type="bus"/>
    <trip id="bs_19" depart="175.37" from="-372467090#1" to="695033474#1" type="bus"/>
    <trip id="bs_20" depart="184.60" from="35950897#0" to="693330103#2" type="bus"/>
    <trip id="bs_21" depart="193.83" from="405113892#2" to="35950925#0" type="bus"/>
    <trip id="bs_22" depart="203.06" from="295408452#5" to="828678869#1" type="bus"/>
    <trip id="bs_23" depart="212.29" from="35950897#0" to="694600787" type="bus"/>
    <trip id="bs_24" depart="221.52" from="694583900#0" to="694775628#2" type="bus"/>
    <trip id="bs_25" depart="230.75" from="689583171#6" to="118570159#0" type="bus"/>
    <trip id="bs_26" depart="239.98" from="295408468#5" to="695025560#0" type="bus"/>
    <trip id="bs_27" depart="249.21" from="695030266" to="-344658497#0" type="bus"/>
    <trip id="bs_28" depart="258.44" from="295408452#11" to="693885803#17" type="bus"/>
    <trip id="bs_29" depart="267.67" from="-118567886#1" to="-1279259377#1" type="bus"/>
    <trip id="bs_30" depart="276.90" from="1210918872#1" to="-118555049#9" type="bus"/>
    <trip id="bs_31" depart="286.13" from="695490086#1" to="-302751295#9" type="bus"/>
    <trip id="bs_32" depart="295.36" from="695496042#0" to="295408465#2-AddedOnRampEdge" type="bus"/>
    <trip id="bs_33" depart="304.59" from="295449627#3" to="295408468#5" type="bus"/>
    <trip id="bs_34" depart="313.82" from="-302751295#16" to="-828724755#0" type="bus"/>
    <trip id="bs_35" depart="323.05" from="295408460#2" to="-828724790#1" type="bus"/>
    <trip id="bs_36" depart="332.28" from="35950868#29" to="696168834#0" type="bus"/>
    <trip id="bs_37" depart="341.51" from="697200467#4" to="641109023#2" type="bus"/>
    <trip id="bs_38" depart="350.74" from="673151142#3" to="-828678818" type="bus"/>
    <trip id="bs_39" depart="359.97" from="562634341" to="408161670#24" type="bus"/>
    <trip id="bs_40" depart="369.20" from="693885802#2" to="695496039#0" type="bus"/>
    <trip id="bs_41" depart="378.43" from="-676438752#1" to="695502614" type="bus"/>
    <trip id="bs_42" depart="387.66" from="295408460#3" to="295128790#0" type="bus"/>
    <trip id="bs_43" depart="396.89" from="1280219260#1" to="118673944#2" type="bus"/>
    <trip id="bs_44" depart="406.12" from="1280219267" to="693885802#0" type="bus"/>
    <trip id="bs_45" depart="415.35" from="-35950942#1" to="1034028677#0" type="bus"/>
    <trip id="bs_46" depart="424.58" from="302739240#3" to="697200467#4" type="bus"/>
    <trip id="bs_47" depart="433.81" from="1279915895#1" to="694600787" type="bus"/>
    <trip id="bs_48" depart="443.04" from="295408452#16-AddedOffRampEdge" to="-560454395" type="bus"/>
    <trip id="bs_49" depart="452.27" from="35950868#18" to="256672293" type="bus"/>
    <trip id="bs_50" depart="461.50" from="695502611#1" to="295408468#0" type="bus"/>
    <trip id="bs_51" depart="470.73" from="295408452#6" to="1282340716" type="bus"/>
    <trip id="bs_52" depart="479.96" from="-118566872#2" to="-295386152#2" type="bus"/>
    <trip id="bs_53" depart="489.19" from="697200467#4-AddedOffRampEdge" to="1280089222" type="bus"/>
    <trip id="bs_54" depart="498.42" from="641077473#1" to="199383481" type="bus"/>
    <trip id="bs_55" depart="507.65" from="408161670#27" to="302751286#2" type="bus"/>
    <trip id="bs_56" depart="516.88" from="295408468#6" to="295449627#4" type="bus"/>
    <trip id="bs_57" depart="526.11" from="-302751295#18" to="693416739#0" type="bus"/>
    <trip id="bs_58" depart="535.34" from="295449629#1" to="828678794#1" type="bus"/>
    <trip id="bs_59" depart="544.57" from="689583171#12" to="295408462#12" type="bus"/>
    <trip id="bs_60" depart="553.80" from="1210918873#0" to="828724717" type="bus"/>
    <trip id="bs_61" depart="563.03" from="828724769" to="1280219267" type="bus"/>
    <trip id="bs_62" depart="572.26" from="694830395#1" to="-295386152#10" type="bus"/>
    <trip id="bs_63" depart="581.49" from="-372464935#3" to="1280219257#1" type="bus"/>
    <trip id="bs_64" depart="590.72" from="695510007#0" to="302751282" type="bus"/>
    <trip id="bs_65" depart="599.95" from="-562701508" to="910359052#9" type="bus"/>
</routes>
